
     RDKit          3D

199202  0  0  0  0  0  0  0  0999 V2000
    4.4421    4.6215    0.5066 C   0  0  0  0  0  0  0  0  0  0  0  0
    4.3957    3.2250    0.9496 C   0  0  0  0  0  0  0  0  0  0  0  0
    3.4045    2.2598    0.6058 C   0  0  2  0  0  0  0  0  0  0  0  0
    3.8066    0.9427    1.3505 C   0  0  0  0  0  0  0  0  0  0  0  0
    2.9407    1.8542   -0.7262 C   0  0  1  0  0  0  0  0  0  0  0  0
    2.3220    2.8295   -1.6326 C   0  0  1  0  0  0  0  0  0  0  0  0
    1.3536    3.8252   -1.1546 C   0  0  0  0  0  0  0  0  0  0  0  0
    0.0809    3.4011   -0.5513 C   0  0  0  0  0  0  0  0  0  0  0  0
   -0.2551    2.1990   -0.4038 O   0  0  0  0  0  0  0  0  0  0  0  0
   -0.7957    4.4767   -0.1260 N   0  0  0  0  0  0  0  0  0  0  0  0
   -0.5299    5.9050   -0.1708 C   0  0  0  0  0  0  0  0  0  0  0  0
   -1.0688    6.4431    1.1449 C   0  0  0  0  0  0  0  0  0  0  0  0
   -2.3408    5.6404    1.2435 C   0  0  0  0  0  0  0  0  0  0  0  0
   -2.1366    4.3708    0.4135 C   0  0  1  0  0  0  0  0  0  0  0  0
   -3.2223    4.4143   -0.6339 C   0  0  1  0  0  0  0  0  0  0  0  0
   -4.5880    4.4125    0.0157 C   0  0  1  0  0  0  0  0  0  0  0  0
   -5.6701    4.5118   -1.0978 C   0  0  0  0  0  0  0  0  0  0  0  0
   -4.8836    3.1292    0.7283 C   0  0  0  0  0  0  0  0  0  0  0  0
   -4.0784    2.1751    0.6875 O   0  0  0  0  0  0  0  0  0  0  0  0
   -6.0788    2.9431    1.4698 N   0  0  0  0  0  0  0  0  0  0  0  0
   -6.2815    1.6519    2.1141 C   0  0  2  0  0  0  0  0  0  0  0  0
   -7.6552    1.1104    1.7466 C   0  0  0  0  0  0  0  0  0  0  0  0
   -6.2130    1.8848    3.6032 C   0  0  1  0  0  0  0  0  0  0  0  0
   -6.2472    0.6573    4.4124 C   0  0  0  0  0  0  0  0  0  0  0  0
   -6.4174   -0.6185    3.9482 C   0  0  0  0  0  0  0  0  0  0  0  0
   -6.4523   -1.7403    4.7638 C   0  0  0  0  0  0  0  0  0  0  0  0
   -6.3083   -1.5902    6.1310 C   0  0  0  0  0  0  0  0  0  0  0  0
   -6.1338   -0.2952    6.6218 C   0  0  0  0  0  0  0  0  0  0  0  0
   -6.1023    0.8056    5.7905 C   0  0  0  0  0  0  0  0  0  0  0  0
   -4.9685    2.4880    3.9438 O   0  0  0  0  0  0  0  0  0  0  0  0
   -3.1241    5.6290   -1.3131 O   0  0  0  0  0  0  0  0  0  0  0  0
   -2.9894    5.4180   -2.6917 C   0  0  0  0  0  0  0  0  0  0  0  0
    3.2429    3.6434   -2.3645 O   0  0  0  0  0  0  0  0  0  0  0  0
    2.9498    3.4269   -3.7193 C   0  0  0  0  0  0  0  0  0  0  0  0
    3.8562    0.9707   -1.4400 N   0  0  0  0  0  0  0  0  0  0  0  0
    5.0477    1.7296   -1.9747 C   0  0  0  0  0  0  0  0  0  0  0  0
    3.8499   -0.3577   -1.7088 C   0  0  0  0  0  0  0  0  0  0  0  0
    4.9082   -0.7534   -2.4585 O   0  0  0  0  0  0  0  0  0  0  0  0
    3.0279   -1.5321   -1.4254 C   0  0  1  0  0  0  0  0  0  0  0  0
    1.7022   -1.6856   -2.1107 C   0  0  0  0  0  0  0  0  0  0  0  0
    0.6472   -0.6897   -1.9263 C   0  0  0  0  0  0  0  0  0  0  0  0
    1.8314   -2.1436   -3.5659 C   0  0  0  0  0  0  0  0  0  0  0  0
    3.7557   -2.7026   -2.0367 N   0  0  0  0  0  0  0  0  0  0  0  0
    4.1779   -3.8531   -1.3641 C   0  0  0  0  0  0  0  0  0  0  0  0
    3.9869   -4.0005   -0.1375 O   0  0  0  0  0  0  0  0  0  0  0  0
    4.8497   -4.8982   -2.1198 C   0  0  1  0  0  0  0  0  0  0  0  0
    5.8139   -4.5344   -3.1819 C   0  0  0  0  0  0  0  0  0  0  0  0
    6.9730   -3.6863   -2.8012 C   0  0  0  0  0  0  0  0  0  0  0  0
    5.1754   -4.0878   -4.4350 C   0  0  0  0  0  0  0  0  0  0  0  0
    5.2352   -6.0412   -1.3548 N   0  0  0  0  0  0  0  0  0  0  0  0
    6.3755   -6.1155   -0.4679 C   0  0  0  0  0  0  0  0  0  0  0  0
    4.3814   -7.2300   -1.5014 C   0  0  0  0  0  0  0  0  0  0  0  0
    4.7534   -8.3430   -1.1015 O   0  0  0  0  0  0  0  0  0  0  0  0
    3.1930   -7.0463   -2.0750 O   0  0  0  0  0  0  0  0  0  0  0  0
    2.1877   -7.9634   -2.4043 C   0  0  0  0  0  0  0  0  0  0  0  0
    0.9687   -7.1440   -2.7498 C   0  0  0  0  0  0  0  0  0  0  0  0
    0.7895   -6.4558   -3.8959 C   0  0  0  0  0  0  0  0  0  0  0  0
   -0.3585   -5.6407   -3.9891 C   0  0  0  0  0  0  0  0  0  0  0  0
   -1.2543   -5.5556   -2.9550 C   0  0  0  0  0  0  0  0  0  0  0  0
   -1.0783   -6.2713   -1.7725 C   0  0  0  0  0  0  0  0  0  0  0  0
    0.0437   -7.0574   -1.6988 C   0  0  0  0  0  0  0  0  0  0  0  0
   -2.3627   -4.6313   -2.9132 N   0  0  0  0  0  0  0  0  0  0  0  0
   -2.3812   -3.7991   -1.7806 C   0  0  0  0  0  0  0  0  0  0  0  0
   -1.4083   -3.9987   -0.9473 O   0  0  0  0  0  0  0  0  0  0  0  0
   -3.3245   -2.7537   -1.3927 C   0  0  1  0  0  0  0  0  0  0  0  0
   -4.7609   -3.0805   -1.5747 C   0  0  0  0  0  0  0  0  0  0  0  0
   -5.6995   -1.9581   -1.1713 C   0  0  0  0  0  0  0  0  0  0  0  0
   -5.4496   -0.7112   -1.9832 C   0  0  0  0  0  0  0  0  0  0  0  0
   -5.6334   -0.9276   -3.4036 N   0  0  0  0  0  0  0  0  0  0  0  0
   -5.4113    0.2135   -4.2489 C   0  0  0  0  0  0  0  0  0  0  0  0
   -5.0745    1.3378   -3.7638 O   0  0  0  0  0  0  0  0  0  0  0  0
   -5.5497    0.1634   -5.6612 N   0  0  0  0  0  0  0  0  0  0  0  0
   -3.0449   -2.5396    0.0325 N   0  0  0  0  0  0  0  0  0  0  0  0
   -2.6226   -1.3559    0.6499 C   0  0  0  0  0  0  0  0  0  0  0  0
   -2.4451   -0.3150    0.0111 O   0  0  0  0  0  0  0  0  0  0  0  0
   -2.4018   -1.4406    2.1414 C   0  0  1  0  0  0  0  0  0  0  0  0
   -1.2641   -2.4249    2.2775 C   0  0  0  0  0  0  0  0  0  0  0  0
   -0.9029   -2.8096    3.6781 C   0  0  0  0  0  0  0  0  0  0  0  0
   -0.0206   -1.9020    1.5377 C   0  0  0  0  0  0  0  0  0  0  0  0
   -2.2332   -0.1500    2.6874 N   0  0  0  0  0  0  0  0  0  0  0  0
   -1.2851    0.3925    3.5555 C   0  0  0  0  0  0  0  0  0  0  0  0
   -0.2979   -0.1780    4.0447 O   0  0  0  0  0  0  0  0  0  0  0  0
   -1.4612    1.8197    3.9568 C   0  0  0  0  0  0  0  0  0  0  0  0
   -0.3403    2.4411    4.6941 C   0  0  0  0  0  0  0  0  0  0  0  0
    0.9561    2.4729    3.9607 C   0  0  0  0  0  0  0  0  0  0  0  0
    1.9831    3.2286    4.7168 C   0  0  0  0  0  0  0  0  0  0  0  0
    2.3508    2.6933    6.0322 C   0  0  0  0  0  0  0  0  0  0  0  0
    2.9380    1.3990    6.0653 N   0  0  0  0  0  0  0  0  0  0  0  0
    2.4345    0.0952    6.2808 C   0  0  0  0  0  0  0  0  0  0  0  0
    1.2565   -0.1960    6.5479 O   0  0  0  0  0  0  0  0  0  0  0  0
    3.5456   -0.8478    6.1407 C   0  0  0  0  0  0  0  0  0  0  0  0
    4.6670   -0.2159    5.8628 C   0  0  0  0  0  0  0  0  0  0  0  0
    4.3472    1.1905    5.8040 C   0  0  0  0  0  0  0  0  0  0  0  0
    5.2122    2.0826    5.5543 O   0  0  0  0  0  0  0  0  0  0  0  0
    5.2906    5.0924    1.1244 H   0  0  0  0  0  0  0  0  0  0  0  0
    4.7990    4.8171   -0.5181 H   0  0  0  0  0  0  0  0  0  0  0  0
    3.5838    5.2506    0.8305 H   0  0  0  0  0  0  0  0  0  0  0  0
    4.3874    3.2960    2.1068 H   0  0  0  0  0  0  0  0  0  0  0  0
    5.4209    2.7999    0.7965 H   0  0  0  0  0  0  0  0  0  0  0  0
    2.4547    2.4973    1.2031 H   0  0  0  0  0  0  0  0  0  0  0  0
    4.8223    0.6572    1.1047 H   0  0  0  0  0  0  0  0  0  0  0  0
    3.1061    0.1780    1.0079 H   0  0  0  0  0  0  0  0  0  0  0  0
    3.7229    1.0646    2.4347 H   0  0  0  0  0  0  0  0  0  0  0  0
    2.1039    1.1302   -0.4564 H   0  0  0  0  0  0  0  0  0  0  0  0
    1.7884    2.2982   -2.4890 H   0  0  0  0  0  0  0  0  0  0  0  0
    1.0092    4.3622   -2.1049 H   0  0  0  0  0  0  0  0  0  0  0  0
    1.8169    4.6842   -0.6090 H   0  0  0  0  0  0  0  0  0  0  0  0
   -0.9369    6.4289   -1.0260 H   0  0  0  0  0  0  0  0  0  0  0  0
    0.5798    6.1087   -0.1046 H   0  0  0  0  0  0  0  0  0  0  0  0
   -0.3722    6.3015    1.9688 H   0  0  0  0  0  0  0  0  0  0  0  0
   -1.2693    7.5391    0.9680 H   0  0  0  0  0  0  0  0  0  0  0  0
   -3.1252    6.2989    0.8135 H   0  0  0  0  0  0  0  0  0  0  0  0
   -2.5387    5.3884    2.3001 H   0  0  0  0  0  0  0  0  0  0  0  0
   -2.2684    3.4993    1.0565 H   0  0  0  0  0  0  0  0  0  0  0  0
   -3.1386    3.5582   -1.3491 H   0  0  0  0  0  0  0  0  0  0  0  0
   -4.7847    5.2346    0.6965 H   0  0  0  0  0  0  0  0  0  0  0  0
   -5.6611    5.5514   -1.4716 H   0  0  0  0  0  0  0  0  0  0  0  0
   -6.6310    4.3692   -0.5625 H   0  0  0  0  0  0  0  0  0  0  0  0
   -5.5601    3.7289   -1.8461 H   0  0  0  0  0  0  0  0  0  0  0  0
   -6.7747    3.7199    1.5406 H   0  0  0  0  0  0  0  0  0  0  0  0
   -5.4709    0.9745    1.8475 H   0  0  0  0  0  0  0  0  0  0  0  0
   -8.1670    0.8415    2.6861 H   0  0  0  0  0  0  0  0  0  0  0  0
   -8.1968    1.9552    1.2350 H   0  0  0  0  0  0  0  0  0  0  0  0
   -7.5008    0.2726    1.0473 H   0  0  0  0  0  0  0  0  0  0  0  0
   -6.9828    2.5985    3.9267 H   0  0  0  0  0  0  0  0  0  0  0  0
   -6.5173   -0.8026    2.8941 H   0  0  0  0  0  0  0  0  0  0  0  0
   -6.5909   -2.7204    4.3340 H   0  0  0  0  0  0  0  0  0  0  0  0
   -6.3316   -2.4555    6.7830 H   0  0  0  0  0  0  0  0  0  0  0  0
   -6.0221   -0.1964    7.7119 H   0  0  0  0  0  0  0  0  0  0  0  0
   -5.9617    1.7647    6.2644 H   0  0  0  0  0  0  0  0  0  0  0  0
   -5.1189    2.9118    4.8086 H   0  0  0  0  0  0  0  0  0  0  0  0
   -3.8401    4.8761   -3.1080 H   0  0  0  0  0  0  0  0  0  0  0  0
   -2.9040    6.4365   -3.1395 H   0  0  0  0  0  0  0  0  0  0  0  0
   -2.0034    4.9404   -2.8672 H   0  0  0  0  0  0  0  0  0  0  0  0
    3.5937    3.9826   -4.3974 H   0  0  0  0  0  0  0  0  0  0  0  0
    2.9975    2.3406   -3.9015 H   0  0  0  0  0  0  0  0  0  0  0  0
    1.8558    3.6792   -3.8813 H   0  0  0  0  0  0  0  0  0  0  0  0
    5.1463    2.7087   -1.5200 H   0  0  0  0  0  0  0  0  0  0  0  0
    5.1209    1.6399   -3.0525 H   0  0  0  0  0  0  0  0  0  0  0  0
    5.9716    1.1850   -1.5996 H   0  0  0  0  0  0  0  0  0  0  0  0
    2.8825   -1.7749   -0.3582 H   0  0  0  0  0  0  0  0  0  0  0  0
    1.2934   -2.6440   -1.6291 H   0  0  0  0  0  0  0  0  0  0  0  0
    0.7248    0.2030   -2.6102 H   0  0  0  0  0  0  0  0  0  0  0  0
    0.4737   -0.4604   -0.8850 H   0  0  0  0  0  0  0  0  0  0  0  0
   -0.3595   -1.1180   -2.2652 H   0  0  0  0  0  0  0  0  0  0  0  0
    2.5516   -1.4680   -4.0557 H   0  0  0  0  0  0  0  0  0  0  0  0
    2.1377   -3.1744   -3.6893 H   0  0  0  0  0  0  0  0  0  0  0  0
    0.8548   -1.9348   -4.0738 H   0  0  0  0  0  0  0  0  0  0  0  0
    3.9212   -2.5346   -3.0552 H   0  0  0  0  0  0  0  0  0  0  0  0
    3.9383   -5.3157   -2.7525 H   0  0  0  0  0  0  0  0  0  0  0  0
    6.3163   -5.5457   -3.4601 H   0  0  0  0  0  0  0  0  0  0  0  0
    7.9671   -4.1600   -2.8648 H   0  0  0  0  0  0  0  0  0  0  0  0
    6.8223   -3.1668   -1.8140 H   0  0  0  0  0  0  0  0  0  0  0  0
    7.0086   -2.8252   -3.5260 H   0  0  0  0  0  0  0  0  0  0  0  0
    4.0900   -4.3004   -4.5411 H   0  0  0  0  0  0  0  0  0  0  0  0
    5.6208   -4.6730   -5.3130 H   0  0  0  0  0  0  0  0  0  0  0  0
    5.4111   -3.0338   -4.7371 H   0  0  0  0  0  0  0  0  0  0  0  0
    6.1065   -6.7626    0.4184 H   0  0  0  0  0  0  0  0  0  0  0  0
    7.2436   -6.6536   -0.9244 H   0  0  0  0  0  0  0  0  0  0  0  0
    6.6679   -5.1585   -0.0262 H   0  0  0  0  0  0  0  0  0  0  0  0
    2.4615   -8.6206   -3.2578 H   0  0  0  0  0  0  0  0  0  0  0  0
    1.9520   -8.5840   -1.5387 H   0  0  0  0  0  0  0  0  0  0  0  0
    1.4989   -6.5368   -4.6821 H   0  0  0  0  0  0  0  0  0  0  0  0
   -0.5490   -5.0750   -4.8713 H   0  0  0  0  0  0  0  0  0  0  0  0
   -1.7768   -6.2369   -0.9518 H   0  0  0  0  0  0  0  0  0  0  0  0
    0.1793   -7.6153   -0.7744 H   0  0  0  0  0  0  0  0  0  0  0  0
   -3.0943   -4.5454   -3.6177 H   0  0  0  0  0  0  0  0  0  0  0  0
   -3.1391   -1.7778   -1.8863 H   0  0  0  0  0  0  0  0  0  0  0  0
   -5.0523   -3.9668   -0.9730 H   0  0  0  0  0  0  0  0  0  0  0  0
   -4.9493   -3.3264   -2.6405 H   0  0  0  0  0  0  0  0  0  0  0  0
   -6.7346   -2.3004   -1.3755 H   0  0  0  0  0  0  0  0  0  0  0  0
   -5.6151   -1.6995   -0.1110 H   0  0  0  0  0  0  0  0  0  0  0  0
   -6.2617    0.0199   -1.6994 H   0  0  0  0  0  0  0  0  0  0  0  0
   -4.5044   -0.2173   -1.7509 H   0  0  0  0  0  0  0  0  0  0  0  0
   -5.9065   -1.8318   -3.8267 H   0  0  0  0  0  0  0  0  0  0  0  0
   -5.9090    0.9409   -6.2423 H   0  0  0  0  0  0  0  0  0  0  0  0
   -5.2585   -0.7323   -6.1412 H   0  0  0  0  0  0  0  0  0  0  0  0
   -3.2077   -3.4253    0.6142 H   0  0  0  0  0  0  0  0  0  0  0  0
   -3.2299   -1.9396    2.6229 H   0  0  0  0  0  0  0  0  0  0  0  0
   -1.5723   -3.3182    1.7353 H   0  0  0  0  0  0  0  0  0  0  0  0
   -1.0735   -3.9504    3.8218 H   0  0  0  0  0  0  0  0  0  0  0  0
    0.1831   -2.7529    3.8843 H   0  0  0  0  0  0  0  0  0  0  0  0
   -1.5667   -2.4185    4.4693 H   0  0  0  0  0  0  0  0  0  0  0  0
   -0.0920   -0.8025    1.3976 H   0  0  0  0  0  0  0  0  0  0  0  0
    0.9210   -2.1787    2.0866 H   0  0  0  0  0  0  0  0  0  0  0  0
    0.1019   -2.3335    0.5318 H   0  0  0  0  0  0  0  0  0  0  0  0
   -3.0015    0.5612    2.3629 H   0  0  0  0  0  0  0  0  0  0  0  0
   -2.3775    1.9044    4.6213 H   0  0  0  0  0  0  0  0  0  0  0  0
   -1.7001    2.4068    3.0554 H   0  0  0  0  0  0  0  0  0  0  0  0
   -0.1853    1.9617    5.6914 H   0  0  0  0  0  0  0  0  0  0  0  0
   -0.6079    3.4999    4.9438 H   0  0  0  0  0  0  0  0  0  0  0  0
    0.8081    2.9423    2.9357 H   0  0  0  0  0  0  0  0  0  0  0  0
    1.3838    1.4339    3.8118 H   0  0  0  0  0  0  0  0  0  0  0  0
    2.8877    3.4404    4.0635 H   0  0  0  0  0  0  0  0  0  0  0  0
    1.5639    4.2857    4.9123 H   0  0  0  0  0  0  0  0  0  0  0  0
    3.0648    3.3754    6.5904 H   0  0  0  0  0  0  0  0  0  0  0  0
    1.4551    2.6432    6.7347 H   0  0  0  0  0  0  0  0  0  0  0  0
    3.5169   -1.9393    6.2414 H   0  0  0  0  0  0  0  0  0  0  0  0
    5.6444   -0.6521    5.7044 H   0  0  0  0  0  0  0  0  0  0  0  0
  1  2  1  0
  2  3  1  0
  3  4  1  0
  3  5  1  0
  5  6  1  0
  6  7  1  0
  7  8  1  0
  8  9  2  0
  8 10  1  0
 10 11  1  0
 11 12  1  0
 12 13  1  0
 13 14  1  0
 14 15  1  0
 15 16  1  0
 16 17  1  0
 16 18  1  0
 18 19  2  0
 18 20  1  0
 20 21  1  0
 21 22  1  0
 21 23  1  0
 23 24  1  0
 24 25  2  0
 25 26  1  0
 26 27  2  0
 27 28  1  0
 28 29  2  0
 23 30  1  0
 15 31  1  0
 31 32  1  0
  6 33  1  0
 33 34  1  0
  5 35  1  0
 35 36  1  0
 35 37  1  0
 37 38  2  0
 37 39  1  0
 39 40  1  0
 40 41  1  0
 40 42  1  0
 39 43  1  0
 43 44  1  0
 44 45  2  0
 44 46  1  0
 46 47  1  0
 47 48  1  0
 47 49  1  0
 46 50  1  0
 50 51  1  0
 50 52  1  0
 52 53  2  0
 52 54  1  0
 54 55  1  0
 55 56  1  0
 56 57  1  0
 57 58  2  0
 58 59  1  0
 59 60  2  0
 60 61  1  0
 59 62  1  0
 62 63  1  0
 63 64  2  0
 63 65  1  0
 65 66  1  0
 66 67  1  0
 67 68  1  0
 68 69  1  0
 69 70  1  0
 70 71  2  0
 70 72  1  0
 65 73  1  0
 73 74  1  0
 74 75  2  0
 74 76  1  0
 76 77  1  0
 77 78  1  0
 77 79  1  0
 76 80  1  0
 80 81  1  0
 81 82  2  0
 81 83  1  0
 83 84  1  0
 84 85  1  0
 85 86  1  0
 86 87  1  0
 87 88  1  0
 88 89  1  0
 89 90  2  0
 89 91  1  0
 91 92  2  0
 92 93  1  0
 93 94  2  0
 14 10  1  0
 29 24  1  0
 61 56  2  0
 93 88  1  0
  1 95  1  0
  1 96  1  0
  1 97  1  0
  2 98  1  0
  2 99  1  0
  3100  1  1
  4101  1  0
  4102  1  0
  4103  1  0
  5104  1  1
  6105  1  6
  7106  1  0
  7107  1  0
 11108  1  0
 11109  1  0
 12110  1  0
 12111  1  0
 13112  1  0
 13113  1  0
 14114  1  1
 15115  1  6
 16116  1  1
 17117  1  0
 17118  1  0
 17119  1  0
 20120  1  0
 21121  1  6
 22122  1  0
 22123  1  0
 22124  1  0
 23125  1  1
 25126  1  0
 26127  1  0
 27128  1  0
 28129  1  0
 29130  1  0
 30131  1  0
 32132  1  0
 32133  1  0
 32134  1  0
 34135  1  0
 34136  1  0
 34137  1  0
 36138  1  0
 36139  1  0
 36140  1  0
 39141  1  1
 40142  1  0
 41143  1  0
 41144  1  0
 41145  1  0
 42146  1  0
 42147  1  0
 42148  1  0
 43149  1  0
 46150  1  6
 47151  1  0
 48152  1  0
 48153  1  0
 48154  1  0
 49155  1  0
 49156  1  0
 49157  1  0
 51158  1  0
 51159  1  0
 51160  1  0
 55161  1  0
 55162  1  0
 57163  1  0
 58164  1  0
 60165  1  0
 61166  1  0
 62167  1  0
 65168  1  6
 66169  1  0
 66170  1  0
 67171  1  0
 67172  1  0
 68173  1  0
 68174  1  0
 69175  1  0
 72176  1  0
 72177  1  0
 73178  1  0
 76179  1  1
 77180  1  0
 78181  1  0
 78182  1  0
 78183  1  0
 79184  1  0
 79185  1  0
 79186  1  0
 80187  1  0
 83188  1  0
 83189  1  0
 84190  1  0
 84191  1  0
 85192  1  0
 85193  1  0
 86194  1  0
 86195  1  0
 87196  1  0
 87197  1  0
 91198  1  0
 92199  1  0
M  END
$$$$

     RDKit          3D

199202  0  0  0  0  0  0  0  0999 V2000
   -6.8824    1.5776    1.2387 C   0  0  0  0  0  0  0  0  0  0  0  0
   -6.3302    1.1524   -0.1259 C   0  0  0  0  0  0  0  0  0  0  0  0
   -5.2226    2.1171   -0.5160 C   0  0  2  0  0  0  0  0  0  0  0  0
   -5.7830    3.4782   -0.6206 C   0  0  0  0  0  0  0  0  0  0  0  0
   -4.2939    1.6175   -1.5529 C   0  0  1  0  0  0  0  0  0  0  0  0
   -4.7611    1.2575   -2.8945 C   0  0  1  0  0  0  0  0  0  0  0  0
   -4.5464   -0.1550   -3.3877 C   0  0  0  0  0  0  0  0  0  0  0  0
   -3.2413   -0.7505   -3.4701 C   0  0  0  0  0  0  0  0  0  0  0  0
   -2.1700   -0.4121   -2.9553 O   0  0  0  0  0  0  0  0  0  0  0  0
   -3.1395   -1.9623   -4.2935 N   0  0  0  0  0  0  0  0  0  0  0  0
   -4.2590   -2.5050   -5.0918 C   0  0  0  0  0  0  0  0  0  0  0  0
   -3.9098   -3.9638   -5.1600 C   0  0  0  0  0  0  0  0  0  0  0  0
   -2.3913   -3.8449   -5.4658 C   0  0  0  0  0  0  0  0  0  0  0  0
   -1.9932   -2.8417   -4.4162 C   0  0  1  0  0  0  0  0  0  0  0  0
   -0.6893   -2.1630   -4.7282 C   0  0  1  0  0  0  0  0  0  0  0  0
    0.5029   -3.0634   -4.6592 C   0  0  1  0  0  0  0  0  0  0  0  0
    0.5374   -4.1549   -5.6627 C   0  0  0  0  0  0  0  0  0  0  0  0
    1.8056   -2.4138   -4.5015 C   0  0  0  0  0  0  0  0  0  0  0  0
    2.0242   -1.2049   -4.3634 O   0  0  0  0  0  0  0  0  0  0  0  0
    2.9552   -3.2780   -4.5040 N   0  0  0  0  0  0  0  0  0  0  0  0
    4.3087   -2.7160   -4.3159 C   0  0  2  0  0  0  0  0  0  0  0  0
    4.8879   -2.5726   -5.7470 C   0  0  0  0  0  0  0  0  0  0  0  0
    5.1034   -3.7568   -3.6231 C   0  0  1  0  0  0  0  0  0  0  0  0
    6.5291   -3.3888   -3.3547 C   0  0  0  0  0  0  0  0  0  0  0  0
    7.2841   -4.3958   -2.7520 C   0  0  0  0  0  0  0  0  0  0  0  0
    8.6031   -4.2166   -2.4085 C   0  0  0  0  0  0  0  0  0  0  0  0
    9.1601   -2.9679   -2.6928 C   0  0  0  0  0  0  0  0  0  0  0  0
    8.4204   -1.9597   -3.2922 C   0  0  0  0  0  0  0  0  0  0  0  0
    7.0764   -2.1773   -3.6282 C   0  0  0  0  0  0  0  0  0  0  0  0
    4.4974   -4.1462   -2.4016 O   0  0  0  0  0  0  0  0  0  0  0  0
   -0.8545   -1.5961   -5.9902 O   0  0  0  0  0  0  0  0  0  0  0  0
   -0.7926   -0.2437   -6.0809 C   0  0  0  0  0  0  0  0  0  0  0  0
   -6.2411    1.1756   -2.8366 O   0  0  0  0  0  0  0  0  0  0  0  0
   -6.7344    1.9740   -3.8548 C   0  0  0  0  0  0  0  0  0  0  0  0
   -2.9662    2.1264   -1.3690 N   0  0  0  0  0  0  0  0  0  0  0  0
   -1.8854    1.4785   -0.6552 C   0  0  0  0  0  0  0  0  0  0  0  0
   -2.6559    3.4809   -1.8221 C   0  0  0  0  0  0  0  0  0  0  0  0
   -3.5512    4.2361   -2.2652 O   0  0  0  0  0  0  0  0  0  0  0  0
   -1.2778    4.0104   -1.7686 C   0  0  1  0  0  0  0  0  0  0  0  0
   -0.7136    3.9348   -3.1912 C   0  0  0  0  0  0  0  0  0  0  0  0
    0.6950    4.4124   -3.3087 C   0  0  0  0  0  0  0  0  0  0  0  0
   -0.8850    2.6124   -3.8556 C   0  0  0  0  0  0  0  0  0  0  0  0
   -1.2152    5.4564   -1.4178 N   0  0  0  0  0  0  0  0  0  0  0  0
   -0.7182    5.7172   -0.1308 C   0  0  0  0  0  0  0  0  0  0  0  0
   -0.4404    4.6821    0.5895 O   0  0  0  0  0  0  0  0  0  0  0  0
   -0.4542    7.0054    0.5317 C   0  0  1  0  0  0  0  0  0  0  0  0
   -0.5467    8.2503   -0.2186 C   0  0  0  0  0  0  0  0  0  0  0  0
   -1.8832    8.5582   -0.8400 C   0  0  0  0  0  0  0  0  0  0  0  0
    0.5797    8.3939   -1.2273 C   0  0  0  0  0  0  0  0  0  0  0  0
   -0.9103    7.0254    1.9030 N   0  0  0  0  0  0  0  0  0  0  0  0
   -2.2322    7.4382    2.2338 C   0  0  0  0  0  0  0  0  0  0  0  0
    0.0527    6.6075    2.8894 C   0  0  0  0  0  0  0  0  0  0  0  0
    1.1591    6.2303    2.4082 O   0  0  0  0  0  0  0  0  0  0  0  0
   -0.1935    6.5974    4.2379 O   0  0  0  0  0  0  0  0  0  0  0  0
    0.8054    6.0507    5.1664 C   0  0  0  0  0  0  0  0  0  0  0  0
    0.8868    4.5821    4.7663 C   0  0  0  0  0  0  0  0  0  0  0  0
    1.8800    4.0751    3.9782 C   0  0  0  0  0  0  0  0  0  0  0  0
    1.7189    2.7446    3.5602 C   0  0  0  0  0  0  0  0  0  0  0  0
    0.6160    1.9974    3.9323 C   0  0  0  0  0  0  0  0  0  0  0  0
   -0.3804    2.5491    4.7491 C   0  0  0  0  0  0  0  0  0  0  0  0
   -0.2348    3.8475    5.1616 C   0  0  0  0  0  0  0  0  0  0  0  0
    0.3461    0.6901    3.4549 N   0  0  0  0  0  0  0  0  0  0  0  0
    0.9176   -0.5083    3.8964 C   0  0  0  0  0  0  0  0  0  0  0  0
    1.7989   -0.4575    4.8209 O   0  0  0  0  0  0  0  0  0  0  0  0
    0.5337   -1.8662    3.3202 C   0  0  1  0  0  0  0  0  0  0  0  0
    0.3432   -1.7618    1.8461 C   0  0  0  0  0  0  0  0  0  0  0  0
   -0.0330   -3.0578    1.1910 C   0  0  0  0  0  0  0  0  0  0  0  0
   -1.3093   -3.6282    1.6991 C   0  0  0  0  0  0  0  0  0  0  0  0
   -1.6360   -4.8702    1.0196 N   0  0  0  0  0  0  0  0  0  0  0  0
   -2.8088   -5.6134    1.3414 C   0  0  0  0  0  0  0  0  0  0  0  0
   -3.5384   -5.1198    2.2532 O   0  0  0  0  0  0  0  0  0  0  0  0
   -3.1929   -6.8130    0.7328 N   0  0  0  0  0  0  0  0  0  0  0  0
    1.4459   -2.8641    3.7787 N   0  0  0  0  0  0  0  0  0  0  0  0
    1.3652   -3.6546    4.9273 C   0  0  0  0  0  0  0  0  0  0  0  0
    0.3957   -3.5425    5.7189 O   0  0  0  0  0  0  0  0  0  0  0  0
    2.4762   -4.6173    5.1711 C   0  0  1  0  0  0  0  0  0  0  0  0
    2.1581   -5.8746    5.8378 C   0  0  0  0  0  0  0  0  0  0  0  0
    1.1463   -6.7375    5.1210 C   0  0  0  0  0  0  0  0  0  0  0  0
    1.8508   -5.7498    7.3066 C   0  0  0  0  0  0  0  0  0  0  0  0
    3.3072   -4.7828    4.0113 N   0  0  0  0  0  0  0  0  0  0  0  0
    4.4196   -3.9667    3.6753 C   0  0  0  0  0  0  0  0  0  0  0  0
    4.6942   -3.0253    4.4410 O   0  0  0  0  0  0  0  0  0  0  0  0
    5.1607   -4.3019    2.4374 C   0  0  0  0  0  0  0  0  0  0  0  0
    5.9757   -3.0827    1.9730 C   0  0  0  0  0  0  0  0  0  0  0  0
    4.9913   -1.9555    1.6760 C   0  0  0  0  0  0  0  0  0  0  0  0
    5.6548   -0.7036    1.1954 C   0  0  0  0  0  0  0  0  0  0  0  0
    6.6324   -0.1042    2.1793 C   0  0  0  0  0  0  0  0  0  0  0  0
    7.2278    1.1197    1.6177 N   0  0  0  0  0  0  0  0  0  0  0  0
    6.6495    2.4100    1.8102 C   0  0  0  0  0  0  0  0  0  0  0  0
    5.6273    2.7661    2.4284 O   0  0  0  0  0  0  0  0  0  0  0  0
    7.5234    3.3386    1.1016 C   0  0  0  0  0  0  0  0  0  0  0  0
    8.5366    2.6601    0.5346 C   0  0  0  0  0  0  0  0  0  0  0  0
    8.3957    1.2523    0.8311 C   0  0  0  0  0  0  0  0  0  0  0  0
    9.1226    0.2878    0.4921 O   0  0  0  0  0  0  0  0  0  0  0  0
   -7.8585    2.0884    1.1441 H   0  0  0  0  0  0  0  0  0  0  0  0
   -7.0705    0.6770    1.8572 H   0  0  0  0  0  0  0  0  0  0  0  0
   -6.1843    2.2882    1.7302 H   0  0  0  0  0  0  0  0  0  0  0  0
   -5.9611    0.1067   -0.0008 H   0  0  0  0  0  0  0  0  0  0  0  0
   -7.2054    1.2432   -0.7968 H   0  0  0  0  0  0  0  0  0  0  0  0
   -4.5795    2.1406    0.4405 H   0  0  0  0  0  0  0  0  0  0  0  0
   -6.7269    3.4826    0.0248 H   0  0  0  0  0  0  0  0  0  0  0  0
   -6.1495    3.7970   -1.6041 H   0  0  0  0  0  0  0  0  0  0  0  0
   -5.1573    4.2556   -0.0886 H   0  0  0  0  0  0  0  0  0  0  0  0
   -4.1242    0.4980   -1.0995 H   0  0  0  0  0  0  0  0  0  0  0  0
   -4.5895    1.9423   -3.7227 H   0  0  0  0  0  0  0  0  0  0  0  0
   -5.1357   -0.8031   -2.6374 H   0  0  0  0  0  0  0  0  0  0  0  0
   -5.1571   -0.3154   -4.3318 H   0  0  0  0  0  0  0  0  0  0  0  0
   -5.2178   -2.3369   -4.6186 H   0  0  0  0  0  0  0  0  0  0  0  0
   -4.2009   -2.0751   -6.1135 H   0  0  0  0  0  0  0  0  0  0  0  0
   -4.4327   -4.5498   -5.9148 H   0  0  0  0  0  0  0  0  0  0  0  0
   -4.0345   -4.3717   -4.1405 H   0  0  0  0  0  0  0  0  0  0  0  0
   -1.9267   -4.8178   -5.3978 H   0  0  0  0  0  0  0  0  0  0  0  0
   -2.3593   -3.4439   -6.4828 H   0  0  0  0  0  0  0  0  0  0  0  0
   -1.8198   -3.3905   -3.4560 H   0  0  0  0  0  0  0  0  0  0  0  0
   -0.5142   -1.3132   -3.9942 H   0  0  0  0  0  0  0  0  0  0  0  0
    0.4131   -3.6129   -3.5931 H   0  0  0  0  0  0  0  0  0  0  0  0
    1.5883   -4.2178   -6.1339 H   0  0  0  0  0  0  0  0  0  0  0  0
   -0.0981   -4.0331   -6.5602 H   0  0  0  0  0  0  0  0  0  0  0  0
    0.3639   -5.1767   -5.2103 H   0  0  0  0  0  0  0  0  0  0  0  0
    2.8690   -4.3216   -4.6255 H   0  0  0  0  0  0  0  0  0  0  0  0
    4.3177   -1.7457   -3.8444 H   0  0  0  0  0  0  0  0  0  0  0  0
    4.2001   -3.0321   -6.4990 H   0  0  0  0  0  0  0  0  0  0  0  0
    4.9482   -1.4899   -5.9615 H   0  0  0  0  0  0  0  0  0  0  0  0
    5.9094   -2.9936   -5.7854 H   0  0  0  0  0  0  0  0  0  0  0  0
    5.1743   -4.7154   -4.2216 H   0  0  0  0  0  0  0  0  0  0  0  0
    6.8201   -5.3760   -2.5472 H   0  0  0  0  0  0  0  0  0  0  0  0
    9.1953   -4.9759   -1.9456 H   0  0  0  0  0  0  0  0  0  0  0  0
   10.1988   -2.8578   -2.4064 H   0  0  0  0  0  0  0  0  0  0  0  0
    8.8804   -1.0072   -3.4971 H   0  0  0  0  0  0  0  0  0  0  0  0
    6.4699   -1.4155   -4.0899 H   0  0  0  0  0  0  0  0  0  0  0  0
    4.7263   -3.5210   -1.6633 H   0  0  0  0  0  0  0  0  0  0  0  0
   -1.5317    0.3379   -5.4970 H   0  0  0  0  0  0  0  0  0  0  0  0
   -0.9787    0.0297   -7.1672 H   0  0  0  0  0  0  0  0  0  0  0  0
    0.2290    0.1492   -5.8935 H   0  0  0  0  0  0  0  0  0  0  0  0
   -7.8539    1.9183   -3.7913 H   0  0  0  0  0  0  0  0  0  0  0  0
   -6.4795    1.5796   -4.8626 H   0  0  0  0  0  0  0  0  0  0  0  0
   -6.4292    3.0188   -3.8300 H   0  0  0  0  0  0  0  0  0  0  0  0
   -2.1433    0.4328   -0.3500 H   0  0  0  0  0  0  0  0  0  0  0  0
   -1.0120    1.3917   -1.2959 H   0  0  0  0  0  0  0  0  0  0  0  0
   -1.6752    1.9886    0.3097 H   0  0  0  0  0  0  0  0  0  0  0  0
   -0.6843    3.4017   -1.1108 H   0  0  0  0  0  0  0  0  0  0  0  0
   -1.3254    4.7361   -3.7601 H   0  0  0  0  0  0  0  0  0  0  0  0
    1.3339    4.1323   -2.4378 H   0  0  0  0  0  0  0  0  0  0  0  0
    0.7920    5.4889   -3.5851 H   0  0  0  0  0  0  0  0  0  0  0  0
    1.1526    3.8756   -4.1869 H   0  0  0  0  0  0  0  0  0  0  0  0
    0.0077    1.9859   -3.7235 H   0  0  0  0  0  0  0  0  0  0  0  0
   -1.0115    2.7335   -4.9802 H   0  0  0  0  0  0  0  0  0  0  0  0
   -1.8131    2.1314   -3.4429 H   0  0  0  0  0  0  0  0  0  0  0  0
   -1.4983    6.2107   -2.0317 H   0  0  0  0  0  0  0  0  0  0  0  0
    0.7123    6.8493    0.7119 H   0  0  0  0  0  0  0  0  0  0  0  0
   -0.3646    9.1005    0.5166 H   0  0  0  0  0  0  0  0  0  0  0  0
   -2.6164    7.8298   -0.4711 H   0  0  0  0  0  0  0  0  0  0  0  0
   -1.7640    8.5883   -1.9418 H   0  0  0  0  0  0  0  0  0  0  0  0
   -2.2460    9.5800   -0.5638 H   0  0  0  0  0  0  0  0  0  0  0  0
    0.4740    7.5945   -1.9892 H   0  0  0  0  0  0  0  0  0  0  0  0
    1.5605    8.3019   -0.7414 H   0  0  0  0  0  0  0  0  0  0  0  0
    0.5134    9.3503   -1.7642 H   0  0  0  0  0  0  0  0  0  0  0  0
   -2.3774    7.2357    3.3232 H   0  0  0  0  0  0  0  0  0  0  0  0
   -3.0263    6.9189    1.6922 H   0  0  0  0  0  0  0  0  0  0  0  0
   -2.3422    8.5380    2.0059 H   0  0  0  0  0  0  0  0  0  0  0  0
    1.7442    6.5688    5.0826 H   0  0  0  0  0  0  0  0  0  0  0  0
    0.3299    6.0971    6.1486 H   0  0  0  0  0  0  0  0  0  0  0  0
    2.7511    4.6270    3.6999 H   0  0  0  0  0  0  0  0  0  0  0  0
    2.4739    2.3051    2.9334 H   0  0  0  0  0  0  0  0  0  0  0  0
   -1.2339    1.9540    5.0426 H   0  0  0  0  0  0  0  0  0  0  0  0
   -1.0120    4.2789    5.7910 H   0  0  0  0  0  0  0  0  0  0  0  0
   -0.3662    0.6385    2.6807 H   0  0  0  0  0  0  0  0  0  0  0  0
   -0.4716   -2.1184    3.7715 H   0  0  0  0  0  0  0  0  0  0  0  0
    1.1856   -1.3126    1.2952 H   0  0  0  0  0  0  0  0  0  0  0  0
   -0.5511   -1.0873    1.6922 H   0  0  0  0  0  0  0  0  0  0  0  0
    0.7762   -3.7808    1.2980 H   0  0  0  0  0  0  0  0  0  0  0  0
   -0.1422   -2.8266    0.0960 H   0  0  0  0  0  0  0  0  0  0  0  0
   -1.2958   -3.8718    2.7772 H   0  0  0  0  0  0  0  0  0  0  0  0
   -2.1596   -2.9171    1.5783 H   0  0  0  0  0  0  0  0  0  0  0  0
   -1.0146   -5.2429    0.2733 H   0  0  0  0  0  0  0  0  0  0  0  0
   -3.8437   -7.4635    1.2702 H   0  0  0  0  0  0  0  0  0  0  0  0
   -2.9089   -7.1528   -0.2056 H   0  0  0  0  0  0  0  0  0  0  0  0
    2.2954   -3.0164    3.1399 H   0  0  0  0  0  0  0  0  0  0  0  0
    3.1412   -4.0087    5.8880 H   0  0  0  0  0  0  0  0  0  0  0  0
    3.1133   -6.4901    5.8027 H   0  0  0  0  0  0  0  0  0  0  0  0
    0.1103   -6.2990    5.1950 H   0  0  0  0  0  0  0  0  0  0  0  0
    1.0476   -7.7559    5.5561 H   0  0  0  0  0  0  0  0  0  0  0  0
    1.4316   -6.9079    4.0646 H   0  0  0  0  0  0  0  0  0  0  0  0
    0.7293   -5.6523    7.4038 H   0  0  0  0  0  0  0  0  0  0  0  0
    2.0956   -6.6503    7.9080 H   0  0  0  0  0  0  0  0  0  0  0  0
    2.3903   -4.9201    7.7930 H   0  0  0  0  0  0  0  0  0  0  0  0
    3.0421   -5.5941    3.3685 H   0  0  0  0  0  0  0  0  0  0  0  0
    5.8758   -5.1360    2.5942 H   0  0  0  0  0  0  0  0  0  0  0  0
    4.4976   -4.5589    1.5886 H   0  0  0  0  0  0  0  0  0  0  0  0
    6.5866   -2.7763    2.8326 H   0  0  0  0  0  0  0  0  0  0  0  0
    6.5706   -3.3287    1.0986 H   0  0  0  0  0  0  0  0  0  0  0  0
    4.3991   -1.6909    2.5673 H   0  0  0  0  0  0  0  0  0  0  0  0
    4.3531   -2.3390    0.8444 H   0  0  0  0  0  0  0  0  0  0  0  0
    4.9181    0.0942    0.9617 H   0  0  0  0  0  0  0  0  0  0  0  0
    6.2186   -0.9785    0.2633 H   0  0  0  0  0  0  0  0  0  0  0  0
    6.1114    0.1748    3.1241 H   0  0  0  0  0  0  0  0  0  0  0  0
    7.4482   -0.7834    2.4727 H   0  0  0  0  0  0  0  0  0  0  0  0
    7.3555    4.4145    1.0581 H   0  0  0  0  0  0  0  0  0  0  0  0
    9.3178    3.1038   -0.0448 H   0  0  0  0  0  0  0  0  0  0  0  0
  1  2  1  0
  2  3  1  0
  3  4  1  0
  3  5  1  0
  5  6  1  0
  6  7  1  0
  7  8  1  0
  8  9  2  0
  8 10  1  0
 10 11  1  0
 11 12  1  0
 12 13  1  0
 13 14  1  0
 14 15  1  0
 15 16  1  0
 16 17  1  0
 16 18  1  0
 18 19  2  0
 18 20  1  0
 20 21  1  0
 21 22  1  0
 21 23  1  0
 23 24  1  0
 24 25  2  0
 25 26  1  0
 26 27  2  0
 27 28  1  0
 28 29  2  0
 23 30  1  0
 15 31  1  0
 31 32  1  0
  6 33  1  0
 33 34  1  0
  5 35  1  0
 35 36  1  0
 35 37  1  0
 37 38  2  0
 37 39  1  0
 39 40  1  0
 40 41  1  0
 40 42  1  0
 39 43  1  0
 43 44  1  0
 44 45  2  0
 44 46  1  0
 46 47  1  0
 47 48  1  0
 47 49  1  0
 46 50  1  0
 50 51  1  0
 50 52  1  0
 52 53  2  0
 52 54  1  0
 54 55  1  0
 55 56  1  0
 56 57  1  0
 57 58  2  0
 58 59  1  0
 59 60  2  0
 60 61  1  0
 59 62  1  0
 62 63  1  0
 63 64  2  0
 63 65  1  0
 65 66  1  0
 66 67  1  0
 67 68  1  0
 68 69  1  0
 69 70  1  0
 70 71  2  0
 70 72  1  0
 65 73  1  0
 73 74  1  0
 74 75  2  0
 74 76  1  0
 76 77  1  0
 77 78  1  0
 77 79  1  0
 76 80  1  0
 80 81  1  0
 81 82  2  0
 81 83  1  0
 83 84  1  0
 84 85  1  0
 85 86  1  0
 86 87  1  0
 87 88  1  0
 88 89  1  0
 89 90  2  0
 89 91  1  0
 91 92  2  0
 92 93  1  0
 93 94  2  0
 14 10  1  0
 29 24  1  0
 61 56  2  0
 93 88  1  0
  1 95  1  0
  1 96  1  0
  1 97  1  0
  2 98  1  0
  2 99  1  0
  3100  1  1
  4101  1  0
  4102  1  0
  4103  1  0
  5104  1  1
  6105  1  6
  7106  1  0
  7107  1  0
 11108  1  0
 11109  1  0
 12110  1  0
 12111  1  0
 13112  1  0
 13113  1  0
 14114  1  1
 15115  1  1
 16116  1  1
 17117  1  0
 17118  1  0
 17119  1  0
 20120  1  0
 21121  1  1
 22122  1  0
 22123  1  0
 22124  1  0
 23125  1  6
 25126  1  0
 26127  1  0
 27128  1  0
 28129  1  0
 29130  1  0
 30131  1  0
 32132  1  0
 32133  1  0
 32134  1  0
 34135  1  0
 34136  1  0
 34137  1  0
 36138  1  0
 36139  1  0
 36140  1  0
 39141  1  1
 40142  1  0
 41143  1  0
 41144  1  0
 41145  1  0
 42146  1  0
 42147  1  0
 42148  1  0
 43149  1  0
 46150  1  1
 47151  1  0
 48152  1  0
 48153  1  0
 48154  1  0
 49155  1  0
 49156  1  0
 49157  1  0
 51158  1  0
 51159  1  0
 51160  1  0
 55161  1  0
 55162  1  0
 57163  1  0
 58164  1  0
 60165  1  0
 61166  1  0
 62167  1  0
 65168  1  1
 66169  1  0
 66170  1  0
 67171  1  0
 67172  1  0
 68173  1  0
 68174  1  0
 69175  1  0
 72176  1  0
 72177  1  0
 73178  1  0
 76179  1  1
 77180  1  0
 78181  1  0
 78182  1  0
 78183  1  0
 79184  1  0
 79185  1  0
 79186  1  0
 80187  1  0
 83188  1  0
 83189  1  0
 84190  1  0
 84191  1  0
 85192  1  0
 85193  1  0
 86194  1  0
 86195  1  0
 87196  1  0
 87197  1  0
 91198  1  0
 92199  1  0
M  END
$$$$

     RDKit          3D

199202  0  0  0  0  0  0  0  0999 V2000
    2.5064    4.9747   -5.0521 C   0  0  0  0  0  0  0  0  0  0  0  0
    1.6825    4.1512   -4.0238 C   0  0  0  0  0  0  0  0  0  0  0  0
    0.7237    3.2642   -4.7316 C   0  0  2  0  0  0  0  0  0  0  0  0
   -0.3046    4.0594   -5.5485 C   0  0  0  0  0  0  0  0  0  0  0  0
    0.1809    2.0709   -4.0778 C   0  0  1  0  0  0  0  0  0  0  0  0
    1.2804    1.0336   -3.6617 C   0  0  1  0  0  0  0  0  0  0  0  0
    0.5410   -0.2674   -3.5882 C   0  0  0  0  0  0  0  0  0  0  0  0
    1.3160   -1.4748   -3.2032 C   0  0  0  0  0  0  0  0  0  0  0  0
    2.5030   -1.2996   -2.8737 O   0  0  0  0  0  0  0  0  0  0  0  0
    0.6442   -2.7060   -3.2430 N   0  0  0  0  0  0  0  0  0  0  0  0
   -0.7916   -2.7691   -3.7174 C   0  0  0  0  0  0  0  0  0  0  0  0
   -0.6566   -3.8001   -4.8432 C   0  0  0  0  0  0  0  0  0  0  0  0
    0.4131   -4.7242   -4.2638 C   0  0  0  0  0  0  0  0  0  0  0  0
    0.8650   -4.0790   -2.9523 C   0  0  1  0  0  0  0  0  0  0  0  0
    2.1581   -4.5904   -2.5277 C   0  0  1  0  0  0  0  0  0  0  0  0
    2.0702   -6.0399   -2.0731 C   0  0  1  0  0  0  0  0  0  0  0  0
    1.6812   -7.0103   -3.1260 C   0  0  0  0  0  0  0  0  0  0  0  0
    3.2255   -6.5351   -1.3240 C   0  0  0  0  0  0  0  0  0  0  0  0
    3.9492   -7.4176   -1.8931 O   0  0  0  0  0  0  0  0  0  0  0  0
    3.5690   -6.0798    0.0084 N   0  0  0  0  0  0  0  0  0  0  0  0
    4.7430   -6.7069    0.5816 C   0  0  2  0  0  0  0  0  0  0  0  0
    4.1935   -7.7223    1.6046 C   0  0  0  0  0  0  0  0  0  0  0  0
    5.6548   -5.7864    1.3274 C   0  0  1  0  0  0  0  0  0  0  0  0
    5.0477   -5.1032    2.4890 C   0  0  0  0  0  0  0  0  0  0  0  0
    4.4931   -3.8462    2.4512 C   0  0  0  0  0  0  0  0  0  0  0  0
    3.9599   -3.2613    3.5904 C   0  0  0  0  0  0  0  0  0  0  0  0
    3.9524   -3.8957    4.8191 C   0  0  0  0  0  0  0  0  0  0  0  0
    4.5092   -5.1564    4.8602 C   0  0  0  0  0  0  0  0  0  0  0  0
    5.0394   -5.7421    3.7330 C   0  0  0  0  0  0  0  0  0  0  0  0
    6.7936   -6.4545    1.8252 O   0  0  0  0  0  0  0  0  0  0  0  0
    3.2264   -4.5037   -3.4145 O   0  0  0  0  0  0  0  0  0  0  0  0
    4.3901   -3.9917   -2.8805 C   0  0  0  0  0  0  0  0  0  0  0  0
    2.2178    0.9072   -4.6470 O   0  0  0  0  0  0  0  0  0  0  0  0
    3.5099    1.1934   -4.4972 C   0  0  0  0  0  0  0  0  0  0  0  0
   -0.8586    2.1320   -3.1164 N   0  0  0  0  0  0  0  0  0  0  0  0
   -2.1307    1.4136   -3.5612 C   0  0  0  0  0  0  0  0  0  0  0  0
   -1.0084    2.7328   -1.8757 C   0  0  0  0  0  0  0  0  0  0  0  0
   -2.0589    2.3423   -1.1865 O   0  0  0  0  0  0  0  0  0  0  0  0
   -0.2297    3.7432   -1.1470 C   0  0  1  0  0  0  0  0  0  0  0  0
   -0.8405    5.1391   -1.4993 C   0  0  0  0  0  0  0  0  0  0  0  0
   -2.2807    5.1838   -1.0310 C   0  0  0  0  0  0  0  0  0  0  0  0
   -0.0882    6.2693   -0.8936 C   0  0  0  0  0  0  0  0  0  0  0  0
   -0.5796    3.6753    0.2800 N   0  0  0  0  0  0  0  0  0  0  0  0
    0.1965    4.0914    1.3583 C   0  0  0  0  0  0  0  0  0  0  0  0
    1.3500    4.5974    1.1714 O   0  0  0  0  0  0  0  0  0  0  0  0
   -0.2756    3.9720    2.7211 C   0  0  1  0  0  0  0  0  0  0  0  0
    0.3026    2.8904    3.5854 C   0  0  0  0  0  0  0  0  0  0  0  0
   -0.2760    3.0008    5.0231 C   0  0  0  0  0  0  0  0  0  0  0  0
   -0.2963    1.5417    3.1312 C   0  0  0  0  0  0  0  0  0  0  0  0
   -0.4335    5.2066    3.5212 N   0  0  0  0  0  0  0  0  0  0  0  0
    0.6589    5.9627    4.0314 C   0  0  0  0  0  0  0  0  0  0  0  0
   -1.8164    5.5220    3.7011 C   0  0  0  0  0  0  0  0  0  0  0  0
   -2.5761    4.8686    2.9016 O   0  0  0  0  0  0  0  0  0  0  0  0
   -2.4216    6.3638    4.5668 O   0  0  0  0  0  0  0  0  0  0  0  0
   -3.8707    6.5220    4.5601 C   0  0  0  0  0  0  0  0  0  0  0  0
   -4.4651    5.1483    4.5249 C   0  0  0  0  0  0  0  0  0  0  0  0
   -4.3820    4.2358    5.5353 C   0  0  0  0  0  0  0  0  0  0  0  0
   -4.8977    2.9519    5.2774 C   0  0  0  0  0  0  0  0  0  0  0  0
   -5.4532    2.6513    4.0680 C   0  0  0  0  0  0  0  0  0  0  0  0
   -5.5557    3.5794    3.0219 C   0  0  0  0  0  0  0  0  0  0  0  0
   -5.0517    4.8255    3.2791 C   0  0  0  0  0  0  0  0  0  0  0  0
   -5.8628    1.3198    3.6715 N   0  0  0  0  0  0  0  0  0  0  0  0
   -4.8369    0.6262    2.9490 C   0  0  0  0  0  0  0  0  0  0  0  0
   -3.7613    1.3110    2.7977 O   0  0  0  0  0  0  0  0  0  0  0  0
   -4.8780   -0.7001    2.3974 C   0  0  1  0  0  0  0  0  0  0  0  0
   -5.8278   -0.8487    1.2119 C   0  0  0  0  0  0  0  0  0  0  0  0
   -5.4181    0.0382    0.0704 C   0  0  0  0  0  0  0  0  0  0  0  0
   -6.3187   -0.0976   -1.1371 C   0  0  0  0  0  0  0  0  0  0  0  0
   -5.8592    0.7563   -2.2299 N   0  0  0  0  0  0  0  0  0  0  0  0
   -6.5057    0.8150   -3.4881 C   0  0  0  0  0  0  0  0  0  0  0  0
   -7.5147    0.1073   -3.6664 O   0  0  0  0  0  0  0  0  0  0  0  0
   -5.9657    1.6846   -4.4904 N   0  0  0  0  0  0  0  0  0  0  0  0
   -3.4961   -0.9338    1.8681 N   0  0  0  0  0  0  0  0  0  0  0  0
   -2.7786   -2.1031    2.1637 C   0  0  0  0  0  0  0  0  0  0  0  0
   -3.3873   -2.9485    2.9196 O   0  0  0  0  0  0  0  0  0  0  0  0
   -1.4424   -2.4693    1.7186 C   0  0  1  0  0  0  0  0  0  0  0  0
   -1.5793   -3.7613    0.8801 C   0  0  0  0  0  0  0  0  0  0  0  0
   -2.1754   -4.8471    1.7397 C   0  0  0  0  0  0  0  0  0  0  0  0
   -2.5127   -3.5668   -0.2885 C   0  0  0  0  0  0  0  0  0  0  0  0
   -0.7052   -1.5064    0.9471 N   0  0  0  0  0  0  0  0  0  0  0  0
    0.6142   -1.1571    1.3335 C   0  0  0  0  0  0  0  0  0  0  0  0
    1.1247   -1.7061    2.3751 O   0  0  0  0  0  0  0  0  0  0  0  0
    1.4821   -0.1909    0.6329 C   0  0  0  0  0  0  0  0  0  0  0  0
    2.7417    0.1412    1.4079 C   0  0  0  0  0  0  0  0  0  0  0  0
    3.6358    1.1297    0.7577 C   0  0  0  0  0  0  0  0  0  0  0  0
    4.2475    0.7855   -0.5416 C   0  0  0  0  0  0  0  0  0  0  0  0
    5.2056   -0.3833   -0.5304 C   0  0  0  0  0  0  0  0  0  0  0  0
    6.3617   -0.1222    0.2997 N   0  0  0  0  0  0  0  0  0  0  0  0
    6.6031   -0.3658    1.6727 C   0  0  0  0  0  0  0  0  0  0  0  0
    5.8417   -0.8876    2.5141 O   0  0  0  0  0  0  0  0  0  0  0  0
    7.9436    0.1040    1.9904 C   0  0  0  0  0  0  0  0  0  0  0  0
    8.5305    0.6113    0.9222 C   0  0  0  0  0  0  0  0  0  0  0  0
    7.5649    0.4912   -0.1835 C   0  0  0  0  0  0  0  0  0  0  0  0
    7.8011    0.8744   -1.3368 O   0  0  0  0  0  0  0  0  0  0  0  0
    2.0361    5.9565   -5.2160 H   0  0  0  0  0  0  0  0  0  0  0  0
    3.5122    5.1556   -4.6239 H   0  0  0  0  0  0  0  0  0  0  0  0
    2.6320    4.3511   -5.9523 H   0  0  0  0  0  0  0  0  0  0  0  0
    1.2103    4.8993   -3.3364 H   0  0  0  0  0  0  0  0  0  0  0  0
    2.4038    3.6216   -3.4052 H   0  0  0  0  0  0  0  0  0  0  0  0
    1.3438    2.7945   -5.6368 H   0  0  0  0  0  0  0  0  0  0  0  0
    0.1097    4.9975   -5.9088 H   0  0  0  0  0  0  0  0  0  0  0  0
   -1.2090    4.2728   -4.9422 H   0  0  0  0  0  0  0  0  0  0  0  0
   -0.6684    3.4277   -6.3859 H   0  0  0  0  0  0  0  0  0  0  0  0
   -0.2918    1.4670   -4.9708 H   0  0  0  0  0  0  0  0  0  0  0  0
    1.7157    1.4071   -2.7461 H   0  0  0  0  0  0  0  0  0  0  0  0
   -0.3729   -0.1725   -2.9705 H   0  0  0  0  0  0  0  0  0  0  0  0
    0.1808   -0.4517   -4.6417 H   0  0  0  0  0  0  0  0  0  0  0  0
   -1.1363   -1.8040   -4.0283 H   0  0  0  0  0  0  0  0  0  0  0  0
   -1.4219   -3.2247   -2.9565 H   0  0  0  0  0  0  0  0  0  0  0  0
   -0.3047   -3.3024   -5.7455 H   0  0  0  0  0  0  0  0  0  0  0  0
   -1.6140   -4.3253   -4.9758 H   0  0  0  0  0  0  0  0  0  0  0  0
    1.2534   -4.6784   -4.9758 H   0  0  0  0  0  0  0  0  0  0  0  0
   -0.0868   -5.6787   -4.1411 H   0  0  0  0  0  0  0  0  0  0  0  0
    0.0907   -4.4211   -2.1819 H   0  0  0  0  0  0  0  0  0  0  0  0
    2.5290   -3.9980   -1.6256 H   0  0  0  0  0  0  0  0  0  0  0  0
    1.1513   -5.9886   -1.3551 H   0  0  0  0  0  0  0  0  0  0  0  0
    2.3125   -7.9887   -2.9851 H   0  0  0  0  0  0  0  0  0  0  0  0
    0.6557   -7.4453   -2.9900 H   0  0  0  0  0  0  0  0  0  0  0  0
    1.9431   -6.7551   -4.1605 H   0  0  0  0  0  0  0  0  0  0  0  0
    2.9941   -5.3610    0.4720 H   0  0  0  0  0  0  0  0  0  0  0  0
    5.2814   -7.3258   -0.1527 H   0  0  0  0  0  0  0  0  0  0  0  0
    3.6168   -7.1272    2.3385 H   0  0  0  0  0  0  0  0  0  0  0  0
    4.9729   -8.2718    2.1230 H   0  0  0  0  0  0  0  0  0  0  0  0
    3.4535   -8.3718    1.0886 H   0  0  0  0  0  0  0  0  0  0  0  0
    6.0626   -5.0720    0.5801 H   0  0  0  0  0  0  0  0  0  0  0  0
    4.4855   -3.3264    1.5009 H   0  0  0  0  0  0  0  0  0  0  0  0
    3.5218   -2.2694    3.5626 H   0  0  0  0  0  0  0  0  0  0  0  0
    3.5414   -3.4414    5.6913 H   0  0  0  0  0  0  0  0  0  0  0  0
    4.5122   -5.6635    5.8116 H   0  0  0  0  0  0  0  0  0  0  0  0
    5.4552   -6.7360    3.8665 H   0  0  0  0  0  0  0  0  0  0  0  0
    7.3736   -5.7632    2.1989 H   0  0  0  0  0  0  0  0  0  0  0  0
    4.3594   -2.9968   -2.4470 H   0  0  0  0  0  0  0  0  0  0  0  0
    5.2248   -4.0261   -3.6554 H   0  0  0  0  0  0  0  0  0  0  0  0
    4.7876   -4.6542   -2.0534 H   0  0  0  0  0  0  0  0  0  0  0  0
    4.0883    0.6813   -3.6950 H   0  0  0  0  0  0  0  0  0  0  0  0
    3.7354    2.2659   -4.6043 H   0  0  0  0  0  0  0  0  0  0  0  0
    4.0193    0.7006   -5.4334 H   0  0  0  0  0  0  0  0  0  0  0  0
   -2.8946    2.1541   -3.8127 H   0  0  0  0  0  0  0  0  0  0  0  0
   -2.5163    0.7888   -2.7684 H   0  0  0  0  0  0  0  0  0  0  0  0
   -1.9186    0.8103   -4.4538 H   0  0  0  0  0  0  0  0  0  0  0  0
    0.8125    3.8129   -1.2752 H   0  0  0  0  0  0  0  0  0  0  0  0
   -0.8956    5.2760   -2.5947 H   0  0  0  0  0  0  0  0  0  0  0  0
   -2.7093    6.2132   -1.1811 H   0  0  0  0  0  0  0  0  0  0  0  0
   -2.3571    5.0424    0.0805 H   0  0  0  0  0  0  0  0  0  0  0  0
   -2.9371    4.4497   -1.4939 H   0  0  0  0  0  0  0  0  0  0  0  0
   -0.3378    6.4786    0.1741 H   0  0  0  0  0  0  0  0  0  0  0  0
   -0.3487    7.2537   -1.4001 H   0  0  0  0  0  0  0  0  0  0  0  0
    1.0146    6.1857   -1.0024 H   0  0  0  0  0  0  0  0  0  0  0  0
   -1.5295    3.2531    0.4665 H   0  0  0  0  0  0  0  0  0  0  0  0
   -1.3870    3.6455    2.5943 H   0  0  0  0  0  0  0  0  0  0  0  0
    1.3792    2.8756    3.6872 H   0  0  0  0  0  0  0  0  0  0  0  0
    0.3874    2.3141    5.6267 H   0  0  0  0  0  0  0  0  0  0  0  0
   -0.1325    4.0099    5.4380 H   0  0  0  0  0  0  0  0  0  0  0  0
   -1.2804    2.5862    5.0864 H   0  0  0  0  0  0  0  0  0  0  0  0
   -0.5716    1.6445    2.0886 H   0  0  0  0  0  0  0  0  0  0  0  0
   -1.2528    1.3332    3.6823 H   0  0  0  0  0  0  0  0  0  0  0  0
    0.3853    0.7508    3.4157 H   0  0  0  0  0  0  0  0  0  0  0  0
    0.4582    6.4022    5.0464 H   0  0  0  0  0  0  0  0  0  0  0  0
    1.6205    5.4382    4.0190 H   0  0  0  0  0  0  0  0  0  0  0  0
    0.7735    6.8555    3.3642 H   0  0  0  0  0  0  0  0  0  0  0  0
   -4.1672    7.0143    5.4843 H   0  0  0  0  0  0  0  0  0  0  0  0
   -4.1210    7.1338    3.6956 H   0  0  0  0  0  0  0  0  0  0  0  0
   -3.9378    4.5052    6.4725 H   0  0  0  0  0  0  0  0  0  0  0  0
   -4.8566    2.1907    6.0428 H   0  0  0  0  0  0  0  0  0  0  0  0
   -5.9884    3.3555    2.0815 H   0  0  0  0  0  0  0  0  0  0  0  0
   -5.1296    5.5642    2.4915 H   0  0  0  0  0  0  0  0  0  0  0  0
   -6.7540    0.8870    3.8567 H   0  0  0  0  0  0  0  0  0  0  0  0
   -5.1733   -1.4527    3.1228 H   0  0  0  0  0  0  0  0  0  0  0  0
   -5.8171   -1.9168    0.9363 H   0  0  0  0  0  0  0  0  0  0  0  0
   -6.8449   -0.5955    1.5446 H   0  0  0  0  0  0  0  0  0  0  0  0
   -4.4120   -0.3502   -0.2792 H   0  0  0  0  0  0  0  0  0  0  0  0
   -5.2333    1.0721    0.3611 H   0  0  0  0  0  0  0  0  0  0  0  0
   -6.2855   -1.1353   -1.4867 H   0  0  0  0  0  0  0  0  0  0  0  0
   -7.3656    0.1679   -0.9404 H   0  0  0  0  0  0  0  0  0  0  0  0
   -5.0062    1.3501   -2.0651 H   0  0  0  0  0  0  0  0  0  0  0  0
   -6.0084    1.3943   -5.5132 H   0  0  0  0  0  0  0  0  0  0  0  0
   -5.5204    2.6129   -4.2403 H   0  0  0  0  0  0  0  0  0  0  0  0
   -3.0397   -0.2204    1.2647 H   0  0  0  0  0  0  0  0  0  0  0  0
   -0.7686   -2.7993    2.5550 H   0  0  0  0  0  0  0  0  0  0  0  0
   -0.5727   -3.9948    0.5402 H   0  0  0  0  0  0  0  0  0  0  0  0
   -1.8612   -5.8493    1.3147 H   0  0  0  0  0  0  0  0  0  0  0  0
   -1.9394   -4.7637    2.7977 H   0  0  0  0  0  0  0  0  0  0  0  0
   -3.2883   -4.8770    1.6397 H   0  0  0  0  0  0  0  0  0  0  0  0
   -2.2829   -4.3631   -1.0301 H   0  0  0  0  0  0  0  0  0  0  0  0
   -2.3881   -2.6164   -0.8235 H   0  0  0  0  0  0  0  0  0  0  0  0
   -3.5843   -3.7147   -0.0079 H   0  0  0  0  0  0  0  0  0  0  0  0
   -1.0809   -1.0232    0.0928 H   0  0  0  0  0  0  0  0  0  0  0  0
    0.9250    0.7538    0.5250 H   0  0  0  0  0  0  0  0  0  0  0  0
    1.7196   -0.5155   -0.4057 H   0  0  0  0  0  0  0  0  0  0  0  0
    3.3012   -0.7756    1.6840 H   0  0  0  0  0  0  0  0  0  0  0  0
    2.4228    0.5768    2.3721 H   0  0  0  0  0  0  0  0  0  0  0  0
    3.0778    2.1016    0.5827 H   0  0  0  0  0  0  0  0  0  0  0  0
    4.4661    1.4477    1.4378 H   0  0  0  0  0  0  0  0  0  0  0  0
    4.8994    1.6735   -0.8116 H   0  0  0  0  0  0  0  0  0  0  0  0
    3.5379    0.7230   -1.3799 H   0  0  0  0  0  0  0  0  0  0  0  0
    5.5676   -0.5089   -1.5686 H   0  0  0  0  0  0  0  0  0  0  0  0
    4.6857   -1.2954   -0.1774 H   0  0  0  0  0  0  0  0  0  0  0  0
    8.4055    0.0481    2.9791 H   0  0  0  0  0  0  0  0  0  0  0  0
    9.5288    1.0222    0.9116 H   0  0  0  0  0  0  0  0  0  0  0  0
  1  2  1  0
  2  3  1  0
  3  4  1  0
  3  5  1  0
  5  6  1  0
  6  7  1  0
  7  8  1  0
  8  9  2  0
  8 10  1  0
 10 11  1  0
 11 12  1  0
 12 13  1  0
 13 14  1  0
 14 15  1  0
 15 16  1  0
 16 17  1  0
 16 18  1  0
 18 19  2  0
 18 20  1  0
 20 21  1  0
 21 22  1  0
 21 23  1  0
 23 24  1  0
 24 25  2  0
 25 26  1  0
 26 27  2  0
 27 28  1  0
 28 29  2  0
 23 30  1  0
 15 31  1  0
 31 32  1  0
  6 33  1  0
 33 34  1  0
  5 35  1  0
 35 36  1  0
 35 37  1  0
 37 38  2  0
 37 39  1  0
 39 40  1  0
 40 41  1  0
 40 42  1  0
 39 43  1  0
 43 44  1  0
 44 45  2  0
 44 46  1  0
 46 47  1  0
 47 48  1  0
 47 49  1  0
 46 50  1  0
 50 51  1  0
 50 52  1  0
 52 53  2  0
 52 54  1  0
 54 55  1  0
 55 56  1  0
 56 57  1  0
 57 58  2  0
 58 59  1  0
 59 60  2  0
 60 61  1  0
 59 62  1  0
 62 63  1  0
 63 64  2  0
 63 65  1  0
 65 66  1  0
 66 67  1  0
 67 68  1  0
 68 69  1  0
 69 70  1  0
 70 71  2  0
 70 72  1  0
 65 73  1  0
 73 74  1  0
 74 75  2  0
 74 76  1  0
 76 77  1  0
 77 78  1  0
 77 79  1  0
 76 80  1  0
 80 81  1  0
 81 82  2  0
 81 83  1  0
 83 84  1  0
 84 85  1  0
 85 86  1  0
 86 87  1  0
 87 88  1  0
 88 89  1  0
 89 90  2  0
 89 91  1  0
 91 92  2  0
 92 93  1  0
 93 94  2  0
 14 10  1  0
 29 24  1  0
 61 56  2  0
 93 88  1  0
  1 95  1  0
  1 96  1  0
  1 97  1  0
  2 98  1  0
  2 99  1  0
  3100  1  6
  4101  1  0
  4102  1  0
  4103  1  0
  5104  1  6
  6105  1  1
  7106  1  0
  7107  1  0
 11108  1  0
 11109  1  0
 12110  1  0
 12111  1  0
 13112  1  0
 13113  1  0
 14114  1  1
 15115  1  1
 16116  1  1
 17117  1  0
 17118  1  0
 17119  1  0
 20120  1  0
 21121  1  6
 22122  1  0
 22123  1  0
 22124  1  0
 23125  1  6
 25126  1  0
 26127  1  0
 27128  1  0
 28129  1  0
 29130  1  0
 30131  1  0
 32132  1  0
 32133  1  0
 32134  1  0
 34135  1  0
 34136  1  0
 34137  1  0
 36138  1  0
 36139  1  0
 36140  1  0
 39141  1  1
 40142  1  0
 41143  1  0
 41144  1  0
 41145  1  0
 42146  1  0
 42147  1  0
 42148  1  0
 43149  1  0
 46150  1  6
 47151  1  0
 48152  1  0
 48153  1  0
 48154  1  0
 49155  1  0
 49156  1  0
 49157  1  0
 51158  1  0
 51159  1  0
 51160  1  0
 55161  1  0
 55162  1  0
 57163  1  0
 58164  1  0
 60165  1  0
 61166  1  0
 62167  1  0
 65168  1  1
 66169  1  0
 66170  1  0
 67171  1  0
 67172  1  0
 68173  1  0
 68174  1  0
 69175  1  0
 72176  1  0
 72177  1  0
 73178  1  0
 76179  1  1
 77180  1  0
 78181  1  0
 78182  1  0
 78183  1  0
 79184  1  0
 79185  1  0
 79186  1  0
 80187  1  0
 83188  1  0
 83189  1  0
 84190  1  0
 84191  1  0
 85192  1  0
 85193  1  0
 86194  1  0
 86195  1  0
 87196  1  0
 87197  1  0
 91198  1  0
 92199  1  0
M  END
$$$$

     RDKit          3D

199202  0  0  0  0  0  0  0  0999 V2000
   -4.1518    5.1189    5.8341 C   0  0  0  0  0  0  0  0  0  0  0  0
   -4.2847    4.4840    4.4356 C   0  0  0  0  0  0  0  0  0  0  0  0
   -2.9376    4.2273    3.9067 C   0  0  2  0  0  0  0  0  0  0  0  0
   -2.1991    5.5360    3.7736 C   0  0  0  0  0  0  0  0  0  0  0  0
   -2.7469    3.2908    2.7557 C   0  0  1  0  0  0  0  0  0  0  0  0
   -3.1586    1.8962    3.0021 C   0  0  1  0  0  0  0  0  0  0  0  0
   -2.6684    1.0288    1.8359 C   0  0  0  0  0  0  0  0  0  0  0  0
   -3.0420   -0.3587    1.9719 C   0  0  0  0  0  0  0  0  0  0  0  0
   -4.3397   -0.5662    1.9851 O   0  0  0  0  0  0  0  0  0  0  0  0
   -2.3148   -1.5695    2.0960 N   0  0  0  0  0  0  0  0  0  0  0  0
   -3.1570   -2.8208    2.1830 C   0  0  0  0  0  0  0  0  0  0  0  0
   -2.2506   -3.7324    1.3474 C   0  0  0  0  0  0  0  0  0  0  0  0
   -0.9021   -3.4205    1.9575 C   0  0  0  0  0  0  0  0  0  0  0  0
   -0.9369   -1.9252    2.1989 C   0  0  1  0  0  0  0  0  0  0  0  0
    0.0353   -1.1809    1.3635 C   0  0  1  0  0  0  0  0  0  0  0  0
    1.4607   -1.5412    1.7271 C   0  0  1  0  0  0  0  0  0  0  0  0
    2.4674   -0.7806    0.8935 C   0  0  0  0  0  0  0  0  0  0  0  0
    1.8410   -1.4820    3.1309 C   0  0  0  0  0  0  0  0  0  0  0  0
    2.7541   -2.3297    3.4914 O   0  0  0  0  0  0  0  0  0  0  0  0
    1.3692   -0.6445    4.1391 N   0  0  0  0  0  0  0  0  0  0  0  0
    1.7766   -0.5481    5.5145 C   0  0  2  0  0  0  0  0  0  0  0  0
    2.6104   -1.8004    5.9103 C   0  0  0  0  0  0  0  0  0  0  0  0
    0.7127   -0.3186    6.5078 C   0  0  1  0  0  0  0  0  0  0  0  0
   -0.1474   -1.5246    6.7389 C   0  0  0  0  0  0  0  0  0  0  0  0
   -1.3052   -1.7807    6.0592 C   0  0  0  0  0  0  0  0  0  0  0  0
   -2.1241   -2.8659    6.2752 C   0  0  0  0  0  0  0  0  0  0  0  0
   -1.7733   -3.7799    7.2447 C   0  0  0  0  0  0  0  0  0  0  0  0
   -0.6163   -3.5733    7.9605 C   0  0  0  0  0  0  0  0  0  0  0  0
    0.1971   -2.4656    7.7236 C   0  0  0  0  0  0  0  0  0  0  0  0
    1.3175   -0.1263    7.7849 O   0  0  0  0  0  0  0  0  0  0  0  0
   -0.1744   -1.2937    0.0030 O   0  0  0  0  0  0  0  0  0  0  0  0
   -0.4021   -0.2181   -0.7540 C   0  0  0  0  0  0  0  0  0  0  0  0
   -2.6927    1.3558    4.1813 O   0  0  0  0  0  0  0  0  0  0  0  0
   -3.6058    0.8939    5.0798 C   0  0  0  0  0  0  0  0  0  0  0  0
   -3.3262    3.7897    1.5005 N   0  0  0  0  0  0  0  0  0  0  0  0
   -4.7390    3.6551    1.2978 C   0  0  0  0  0  0  0  0  0  0  0  0
   -2.4667    4.3220    0.4567 C   0  0  0  0  0  0  0  0  0  0  0  0
   -1.2194    4.2409    0.6566 O   0  0  0  0  0  0  0  0  0  0  0  0
   -3.0303    4.9072   -0.7355 C   0  0  1  0  0  0  0  0  0  0  0  0
   -3.5110    6.3649   -0.5544 C   0  0  0  0  0  0  0  0  0  0  0  0
   -4.5468    6.6225    0.4426 C   0  0  0  0  0  0  0  0  0  0  0  0
   -2.3107    7.2815   -0.4102 C   0  0  0  0  0  0  0  0  0  0  0  0
   -1.9984    5.1572   -1.7917 N   0  0  0  0  0  0  0  0  0  0  0  0
   -2.2049    4.6063   -3.0515 C   0  0  0  0  0  0  0  0  0  0  0  0
   -3.2017    3.8425   -3.3115 O   0  0  0  0  0  0  0  0  0  0  0  0
   -1.3150    4.8408   -4.2572 C   0  0  1  0  0  0  0  0  0  0  0  0
    0.0484    5.2394   -4.0097 C   0  0  0  0  0  0  0  0  0  0  0  0
    0.9083    4.3182   -3.1730 C   0  0  0  0  0  0  0  0  0  0  0  0
    0.1879    6.6831   -3.5404 C   0  0  0  0  0  0  0  0  0  0  0  0
   -1.6378    3.9314   -5.2833 N   0  0  0  0  0  0  0  0  0  0  0  0
   -2.7327    4.3147   -6.2192 C   0  0  0  0  0  0  0  0  0  0  0  0
   -1.0642    2.6632   -5.5632 C   0  0  0  0  0  0  0  0  0  0  0  0
   -0.0131    2.2275   -4.9928 O   0  0  0  0  0  0  0  0  0  0  0  0
   -1.6177    1.8037   -6.4939 O   0  0  0  0  0  0  0  0  0  0  0  0
   -1.1211    0.5887   -6.9296 C   0  0  0  0  0  0  0  0  0  0  0  0
   -0.7118   -0.3818   -5.9102 C   0  0  0  0  0  0  0  0  0  0  0  0
   -1.4958   -1.1939   -5.1511 C   0  0  0  0  0  0  0  0  0  0  0  0
   -0.9221   -2.1215   -4.2629 C   0  0  0  0  0  0  0  0  0  0  0  0
    0.4238   -2.2440   -4.1279 C   0  0  0  0  0  0  0  0  0  0  0  0
    1.2546   -1.4164   -4.8989 C   0  0  0  0  0  0  0  0  0  0  0  0
    0.6740   -0.5276   -5.7491 C   0  0  0  0  0  0  0  0  0  0  0  0
    1.1221   -3.1241   -3.2622 N   0  0  0  0  0  0  0  0  0  0  0  0
    1.1361   -4.5083   -3.6958 C   0  0  0  0  0  0  0  0  0  0  0  0
    0.4702   -4.6930   -4.7773 O   0  0  0  0  0  0  0  0  0  0  0  0
    1.8317   -5.5724   -2.9791 C   0  0  1  0  0  0  0  0  0  0  0  0
    2.4430   -6.6350   -3.8083 C   0  0  0  0  0  0  0  0  0  0  0  0
    1.5252   -7.4037   -4.6703 C   0  0  0  0  0  0  0  0  0  0  0  0
    0.4120   -8.1742   -4.0795 C   0  0  0  0  0  0  0  0  0  0  0  0
   -0.6300   -7.4436   -3.4438 N   0  0  0  0  0  0  0  0  0  0  0  0
   -1.6835   -8.2526   -2.8353 C   0  0  0  0  0  0  0  0  0  0  0  0
   -1.6085   -9.5114   -2.9061 O   0  0  0  0  0  0  0  0  0  0  0  0
   -2.7727   -7.6023   -2.1739 N   0  0  0  0  0  0  0  0  0  0  0  0
    2.8363   -4.9786   -2.0684 N   0  0  0  0  0  0  0  0  0  0  0  0
    2.9612   -5.2943   -0.7120 C   0  0  0  0  0  0  0  0  0  0  0  0
    2.1297   -6.1488   -0.2433 O   0  0  0  0  0  0  0  0  0  0  0  0
    3.9530   -4.7466    0.2105 C   0  0  1  0  0  0  0  0  0  0  0  0
    4.8718   -5.9172    0.5974 C   0  0  0  0  0  0  0  0  0  0  0  0
    5.5610   -6.5212   -0.5971 C   0  0  0  0  0  0  0  0  0  0  0  0
    4.0346   -6.9844    1.2539 C   0  0  0  0  0  0  0  0  0  0  0  0
    4.7426   -3.7061   -0.4187 N   0  0  0  0  0  0  0  0  0  0  0  0
    5.3019   -2.7221    0.4297 C   0  0  0  0  0  0  0  0  0  0  0  0
    5.0887   -2.8266    1.6580 O   0  0  0  0  0  0  0  0  0  0  0  0
    6.1273   -1.5750   -0.0242 C   0  0  0  0  0  0  0  0  0  0  0  0
    6.8327   -0.9153    1.1293 C   0  0  0  0  0  0  0  0  0  0  0  0
    7.6697    0.2186    0.6399 C   0  0  0  0  0  0  0  0  0  0  0  0
    6.9592    1.3671    0.0038 C   0  0  0  0  0  0  0  0  0  0  0  0
    6.0323    1.9852    1.0104 C   0  0  0  0  0  0  0  0  0  0  0  0
    5.3297    3.1493    0.5722 N   0  0  0  0  0  0  0  0  0  0  0  0
    4.0882    3.3555   -0.0654 C   0  0  0  0  0  0  0  0  0  0  0  0
    3.2947    2.4646   -0.4021 O   0  0  0  0  0  0  0  0  0  0  0  0
    3.8895    4.8094   -0.2670 C   0  0  0  0  0  0  0  0  0  0  0  0
    4.9427    5.4564    0.2152 C   0  0  0  0  0  0  0  0  0  0  0  0
    5.8748    4.4796    0.7520 C   0  0  0  0  0  0  0  0  0  0  0  0
    6.9709    4.7954    1.2788 O   0  0  0  0  0  0  0  0  0  0  0  0
   -4.8283    4.6286    6.5617 H   0  0  0  0  0  0  0  0  0  0  0  0
   -4.3401    6.1912    5.8449 H   0  0  0  0  0  0  0  0  0  0  0  0
   -3.1160    4.9264    6.2274 H   0  0  0  0  0  0  0  0  0  0  0  0
   -4.7873    5.3362    3.8523 H   0  0  0  0  0  0  0  0  0  0  0  0
   -5.0146    3.7049    4.4966 H   0  0  0  0  0  0  0  0  0  0  0  0
   -2.3354    3.7204    4.7733 H   0  0  0  0  0  0  0  0  0  0  0  0
   -1.8886    5.8855    4.7944 H   0  0  0  0  0  0  0  0  0  0  0  0
   -2.9296    6.2989    3.4367 H   0  0  0  0  0  0  0  0  0  0  0  0
   -1.2984    5.4643    3.1371 H   0  0  0  0  0  0  0  0  0  0  0  0
   -1.6306    3.3542    2.5507 H   0  0  0  0  0  0  0  0  0  0  0  0
   -4.2432    1.8146    3.0329 H   0  0  0  0  0  0  0  0  0  0  0  0
   -1.6518    1.3069    1.6049 H   0  0  0  0  0  0  0  0  0  0  0  0
   -3.2335    1.3738    0.8861 H   0  0  0  0  0  0  0  0  0  0  0  0
   -4.1275   -2.6844    1.7215 H   0  0  0  0  0  0  0  0  0  0  0  0
   -3.1143   -3.1611    3.2103 H   0  0  0  0  0  0  0  0  0  0  0  0
   -2.3090   -3.4597    0.2760 H   0  0  0  0  0  0  0  0  0  0  0  0
   -2.6082   -4.7447    1.4691 H   0  0  0  0  0  0  0  0  0  0  0  0
   -0.1290   -3.7657    1.2793 H   0  0  0  0  0  0  0  0  0  0  0  0
   -0.8863   -4.0167    2.9182 H   0  0  0  0  0  0  0  0  0  0  0  0
   -0.6220   -1.8206    3.2788 H   0  0  0  0  0  0  0  0  0  0  0  0
   -0.0238   -0.1088    1.6065 H   0  0  0  0  0  0  0  0  0  0  0  0
    1.6071   -2.6275    1.3870 H   0  0  0  0  0  0  0  0  0  0  0  0
    3.3766   -0.6559    1.5157 H   0  0  0  0  0  0  0  0  0  0  0  0
    2.7838   -1.3028   -0.0096 H   0  0  0  0  0  0  0  0  0  0  0  0
    2.1176    0.2762    0.7203 H   0  0  0  0  0  0  0  0  0  0  0  0
    0.5940    0.0434    3.8566 H   0  0  0  0  0  0  0  0  0  0  0  0
    2.5685    0.2322    5.5865 H   0  0  0  0  0  0  0  0  0  0  0  0
    2.1305   -2.7311    5.6768 H   0  0  0  0  0  0  0  0  0  0  0  0
    3.5976   -1.6659    5.4320 H   0  0  0  0  0  0  0  0  0  0  0  0
    2.8387   -1.6169    7.0019 H   0  0  0  0  0  0  0  0  0  0  0  0
    0.1406    0.5726    6.2876 H   0  0  0  0  0  0  0  0  0  0  0  0
   -1.5965   -1.0877    5.2922 H   0  0  0  0  0  0  0  0  0  0  0  0
   -3.0311   -3.0569    5.7318 H   0  0  0  0  0  0  0  0  0  0  0  0
   -2.3619   -4.6642    7.4782 H   0  0  0  0  0  0  0  0  0  0  0  0
   -0.3139   -4.2889    8.7457 H   0  0  0  0  0  0  0  0  0  0  0  0
    1.0663   -2.3789    8.3261 H   0  0  0  0  0  0  0  0  0  0  0  0
    0.5779    0.2406    8.3608 H   0  0  0  0  0  0  0  0  0  0  0  0
   -0.5111   -0.5817   -1.8304 H   0  0  0  0  0  0  0  0  0  0  0  0
    0.3009    0.6008   -0.7899 H   0  0  0  0  0  0  0  0  0  0  0  0
   -1.4280    0.2398   -0.5826 H   0  0  0  0  0  0  0  0  0  0  0  0
   -4.2755    1.7230    5.3832 H   0  0  0  0  0  0  0  0  0  0  0  0
   -4.2720    0.0812    4.7278 H   0  0  0  0  0  0  0  0  0  0  0  0
   -3.1578    0.4914    6.0128 H   0  0  0  0  0  0  0  0  0  0  0  0
   -5.0380    3.8013    0.2343 H   0  0  0  0  0  0  0  0  0  0  0  0
   -5.3851    4.3177    1.8855 H   0  0  0  0  0  0  0  0  0  0  0  0
   -5.1361    2.6189    1.5167 H   0  0  0  0  0  0  0  0  0  0  0  0
   -3.7923    4.3362   -1.2411 H   0  0  0  0  0  0  0  0  0  0  0  0
   -3.9463    6.6390   -1.5632 H   0  0  0  0  0  0  0  0  0  0  0  0
   -4.3130    6.4222    1.4940 H   0  0  0  0  0  0  0  0  0  0  0  0
   -5.5123    6.1300    0.1441 H   0  0  0  0  0  0  0  0  0  0  0  0
   -4.7476    7.7352    0.4209 H   0  0  0  0  0  0  0  0  0  0  0  0
   -1.4601    6.8310    0.0961 H   0  0  0  0  0  0  0  0  0  0  0  0
   -2.0054    7.7642   -1.3450 H   0  0  0  0  0  0  0  0  0  0  0  0
   -2.6653    8.1343    0.2468 H   0  0  0  0  0  0  0  0  0  0  0  0
   -1.1542    5.7230   -1.5814 H   0  0  0  0  0  0  0  0  0  0  0  0
   -1.8771    5.8419   -4.6190 H   0  0  0  0  0  0  0  0  0  0  0  0
    0.5796    5.2475   -5.0262 H   0  0  0  0  0  0  0  0  0  0  0  0
    1.7226    3.8299   -3.7337 H   0  0  0  0  0  0  0  0  0  0  0  0
    0.2683    3.5716   -2.7018 H   0  0  0  0  0  0  0  0  0  0  0  0
    1.4541    4.9314   -2.3917 H   0  0  0  0  0  0  0  0  0  0  0  0
    0.7396    6.7480   -2.5963 H   0  0  0  0  0  0  0  0  0  0  0  0
   -0.8023    7.1612   -3.4520 H   0  0  0  0  0  0  0  0  0  0  0  0
    0.7383    7.3180   -4.2908 H   0  0  0  0  0  0  0  0  0  0  0  0
   -2.2873    4.4886   -7.2116 H   0  0  0  0  0  0  0  0  0  0  0  0
   -3.4498    3.4663   -6.3057 H   0  0  0  0  0  0  0  0  0  0  0  0
   -3.2525    5.2162   -5.8846 H   0  0  0  0  0  0  0  0  0  0  0  0
   -1.9603    0.0981   -7.5106 H   0  0  0  0  0  0  0  0  0  0  0  0
   -0.2631    0.7201   -7.6571 H   0  0  0  0  0  0  0  0  0  0  0  0
   -2.5641   -1.1004   -5.2520 H   0  0  0  0  0  0  0  0  0  0  0  0
   -1.5496   -2.7681   -3.6558 H   0  0  0  0  0  0  0  0  0  0  0  0
    2.3327   -1.4770   -4.8292 H   0  0  0  0  0  0  0  0  0  0  0  0
    1.3677    0.1021   -6.3347 H   0  0  0  0  0  0  0  0  0  0  0  0
    1.6015   -2.8548   -2.3883 H   0  0  0  0  0  0  0  0  0  0  0  0
    1.1388   -6.0779   -2.2608 H   0  0  0  0  0  0  0  0  0  0  0  0
    3.2549   -6.2282   -4.4752 H   0  0  0  0  0  0  0  0  0  0  0  0
    2.9274   -7.4089   -3.1135 H   0  0  0  0  0  0  0  0  0  0  0  0
    2.1969   -8.1641   -5.2252 H   0  0  0  0  0  0  0  0  0  0  0  0
    1.1179   -6.7772   -5.5237 H   0  0  0  0  0  0  0  0  0  0  0  0
    0.7861   -8.9895   -3.3933 H   0  0  0  0  0  0  0  0  0  0  0  0
   -0.0991   -8.7891   -4.8944 H   0  0  0  0  0  0  0  0  0  0  0  0
   -0.7818   -6.4408   -3.3606 H   0  0  0  0  0  0  0  0  0  0  0  0
   -3.1727   -7.9407   -1.2729 H   0  0  0  0  0  0  0  0  0  0  0  0
   -3.1974   -6.7363   -2.6177 H   0  0  0  0  0  0  0  0  0  0  0  0
    3.4643   -4.2889   -2.5268 H   0  0  0  0  0  0  0  0  0  0  0  0
    3.4867   -4.4534    1.1604 H   0  0  0  0  0  0  0  0  0  0  0  0
    5.6475   -5.6120    1.3166 H   0  0  0  0  0  0  0  0  0  0  0  0
    4.9169   -7.2307   -1.1506 H   0  0  0  0  0  0  0  0  0  0  0  0
    6.4197   -7.1127   -0.2218 H   0  0  0  0  0  0  0  0  0  0  0  0
    6.0168   -5.7520   -1.2567 H   0  0  0  0  0  0  0  0  0  0  0  0
    4.6122   -7.5133    2.0650 H   0  0  0  0  0  0  0  0  0  0  0  0
    3.6275   -7.7373    0.5518 H   0  0  0  0  0  0  0  0  0  0  0  0
    3.1591   -6.5532    1.8048 H   0  0  0  0  0  0  0  0  0  0  0  0
    4.9362   -3.6280   -1.4307 H   0  0  0  0  0  0  0  0  0  0  0  0
    5.4960   -0.7607   -0.4853 H   0  0  0  0  0  0  0  0  0  0  0  0
    6.8782   -1.8240   -0.7883 H   0  0  0  0  0  0  0  0  0  0  0  0
    6.1252   -0.5688    1.9105 H   0  0  0  0  0  0  0  0  0  0  0  0
    7.5374   -1.6780    1.5342 H   0  0  0  0  0  0  0  0  0  0  0  0
    8.3193   -0.2243   -0.1840 H   0  0  0  0  0  0  0  0  0  0  0  0
    8.3290    0.6376    1.4381 H   0  0  0  0  0  0  0  0  0  0  0  0
    7.7389    2.1362   -0.2168 H   0  0  0  0  0  0  0  0  0  0  0  0
    6.4663    1.1466   -0.9570 H   0  0  0  0  0  0  0  0  0  0  0  0
    6.6586    2.2391    1.8979 H   0  0  0  0  0  0  0  0  0  0  0  0
    5.3066    1.2031    1.3389 H   0  0  0  0  0  0  0  0  0  0  0  0
    3.0634    5.3235   -0.7183 H   0  0  0  0  0  0  0  0  0  0  0  0
    5.1092    6.5332    0.2213 H   0  0  0  0  0  0  0  0  0  0  0  0
  1  2  1  0
  2  3  1  0
  3  4  1  0
  3  5  1  0
  5  6  1  0
  6  7  1  0
  7  8  1  0
  8  9  2  0
  8 10  1  0
 10 11  1  0
 11 12  1  0
 12 13  1  0
 13 14  1  0
 14 15  1  0
 15 16  1  0
 16 17  1  0
 16 18  1  0
 18 19  2  0
 18 20  1  0
 20 21  1  0
 21 22  1  0
 21 23  1  0
 23 24  1  0
 24 25  2  0
 25 26  1  0
 26 27  2  0
 27 28  1  0
 28 29  2  0
 23 30  1  0
 15 31  1  0
 31 32  1  0
  6 33  1  0
 33 34  1  0
  5 35  1  0
 35 36  1  0
 35 37  1  0
 37 38  2  0
 37 39  1  0
 39 40  1  0
 40 41  1  0
 40 42  1  0
 39 43  1  0
 43 44  1  0
 44 45  2  0
 44 46  1  0
 46 47  1  0
 47 48  1  0
 47 49  1  0
 46 50  1  0
 50 51  1  0
 50 52  1  0
 52 53  2  0
 52 54  1  0
 54 55  1  0
 55 56  1  0
 56 57  1  0
 57 58  2  0
 58 59  1  0
 59 60  2  0
 60 61  1  0
 59 62  1  0
 62 63  1  0
 63 64  2  0
 63 65  1  0
 65 66  1  0
 66 67  1  0
 67 68  1  0
 68 69  1  0
 69 70  1  0
 70 71  2  0
 70 72  1  0
 65 73  1  0
 73 74  1  0
 74 75  2  0
 74 76  1  0
 76 77  1  0
 77 78  1  0
 77 79  1  0
 76 80  1  0
 80 81  1  0
 81 82  2  0
 81 83  1  0
 83 84  1  0
 84 85  1  0
 85 86  1  0
 86 87  1  0
 87 88  1  0
 88 89  1  0
 89 90  2  0
 89 91  1  0
 91 92  2  0
 92 93  1  0
 93 94  2  0
 14 10  1  0
 29 24  1  0
 61 56  2  0
 93 88  1  0
  1 95  1  0
  1 96  1  0
  1 97  1  0
  2 98  1  0
  2 99  1  0
  3100  1  1
  4101  1  0
  4102  1  0
  4103  1  0
  5104  1  6
  6105  1  1
  7106  1  0
  7107  1  0
 11108  1  0
 11109  1  0
 12110  1  0
 12111  1  0
 13112  1  0
 13113  1  0
 14114  1  1
 15115  1  1
 16116  1  6
 17117  1  0
 17118  1  0
 17119  1  0
 20120  1  0
 21121  1  6
 22122  1  0
 22123  1  0
 22124  1  0
 23125  1  6
 25126  1  0
 26127  1  0
 27128  1  0
 28129  1  0
 29130  1  0
 30131  1  0
 32132  1  0
 32133  1  0
 32134  1  0
 34135  1  0
 34136  1  0
 34137  1  0
 36138  1  0
 36139  1  0
 36140  1  0
 39141  1  6
 40142  1  0
 41143  1  0
 41144  1  0
 41145  1  0
 42146  1  0
 42147  1  0
 42148  1  0
 43149  1  0
 46150  1  6
 47151  1  0
 48152  1  0
 48153  1  0
 48154  1  0
 49155  1  0
 49156  1  0
 49157  1  0
 51158  1  0
 51159  1  0
 51160  1  0
 55161  1  0
 55162  1  0
 57163  1  0
 58164  1  0
 60165  1  0
 61166  1  0
 62167  1  0
 65168  1  1
 66169  1  0
 66170  1  0
 67171  1  0
 67172  1  0
 68173  1  0
 68174  1  0
 69175  1  0
 72176  1  0
 72177  1  0
 73178  1  0
 76179  1  1
 77180  1  0
 78181  1  0
 78182  1  0
 78183  1  0
 79184  1  0
 79185  1  0
 79186  1  0
 80187  1  0
 83188  1  0
 83189  1  0
 84190  1  0
 84191  1  0
 85192  1  0
 85193  1  0
 86194  1  0
 86195  1  0
 87196  1  0
 87197  1  0
 91198  1  0
 92199  1  0
M  END
$$$$

     RDKit          3D

199202  0  0  0  0  0  0  0  0999 V2000
    3.0212    2.9861    3.9068 C   0  0  0  0  0  0  0  0  0  0  0  0
    2.1425    3.5376    2.7429 C   0  0  0  0  0  0  0  0  0  0  0  0
    2.8699    3.3124    1.4746 C   0  0  2  0  0  0  0  0  0  0  0  0
    4.1823    4.0572    1.5027 C   0  0  0  0  0  0  0  0  0  0  0  0
    2.1088    3.3530    0.1919 C   0  0  1  0  0  0  0  0  0  0  0  0
    1.4138    4.5434   -0.2611 C   0  0  1  0  0  0  0  0  0  0  0  0
    0.2700    5.1134    0.5160 C   0  0  0  0  0  0  0  0  0  0  0  0
   -0.8858    4.2156    0.6940 C   0  0  0  0  0  0  0  0  0  0  0  0
   -0.7958    3.0250    1.1100 O   0  0  0  0  0  0  0  0  0  0  0  0
   -2.2443    4.6134    0.4050 N   0  0  0  0  0  0  0  0  0  0  0  0
   -2.6675    5.8993   -0.2014 C   0  0  0  0  0  0  0  0  0  0  0  0
   -3.7789    5.4102   -1.1513 C   0  0  0  0  0  0  0  0  0  0  0  0
   -3.9828    3.9114   -0.8073 C   0  0  0  0  0  0  0  0  0  0  0  0
   -3.5046    3.9494    0.6142 C   0  0  1  0  0  0  0  0  0  0  0  0
   -3.7158    2.8703    1.5220 C   0  0  1  0  0  0  0  0  0  0  0  0
   -5.1977    2.4072    1.3697 C   0  0  1  0  0  0  0  0  0  0  0  0
   -6.1820    3.4621    1.6427 C   0  0  0  0  0  0  0  0  0  0  0  0
   -5.3589    1.5589    0.1960 C   0  0  0  0  0  0  0  0  0  0  0  0
   -4.3093    1.1219   -0.3852 O   0  0  0  0  0  0  0  0  0  0  0  0
   -6.6359    1.2235   -0.2945 N   0  0  0  0  0  0  0  0  0  0  0  0
   -6.7006    0.3752   -1.4623 C   0  0  2  0  0  0  0  0  0  0  0  0
   -7.2363    1.1284   -2.6707 C   0  0  0  0  0  0  0  0  0  0  0  0
   -7.5793   -0.8271   -1.2873 C   0  0  1  0  0  0  0  0  0  0  0  0
   -7.3210   -1.6673   -2.5264 C   0  0  0  0  0  0  0  0  0  0  0  0
   -8.2895   -1.8355   -3.4869 C   0  0  0  0  0  0  0  0  0  0  0  0
   -7.9237   -2.6139   -4.5907 C   0  0  0  0  0  0  0  0  0  0  0  0
   -6.6467   -3.1663   -4.6703 C   0  0  0  0  0  0  0  0  0  0  0  0
   -5.7089   -2.9697   -3.6805 C   0  0  0  0  0  0  0  0  0  0  0  0
   -6.0569   -2.2097   -2.5978 C   0  0  0  0  0  0  0  0  0  0  0  0
   -7.1395   -1.6283   -0.2310 O   0  0  0  0  0  0  0  0  0  0  0  0
   -3.0235    1.6886    1.4577 O   0  0  0  0  0  0  0  0  0  0  0  0
   -2.7174    1.3564    2.8107 C   0  0  0  0  0  0  0  0  0  0  0  0
    2.1662    5.5911   -0.8039 O   0  0  0  0  0  0  0  0  0  0  0  0
    1.7253    5.7002   -2.1465 C   0  0  0  0  0  0  0  0  0  0  0  0
    2.8275    2.5860   -0.8437 N   0  0  0  0  0  0  0  0  0  0  0  0
    2.1094    1.3712   -1.2534 C   0  0  0  0  0  0  0  0  0  0  0  0
    4.0168    3.0223   -1.4709 C   0  0  0  0  0  0  0  0  0  0  0  0
    4.3608    4.2344   -1.3442 O   0  0  0  0  0  0  0  0  0  0  0  0
    4.9321    2.1844   -2.2740 C   0  0  1  0  0  0  0  0  0  0  0  0
    6.3169    2.7744   -2.2899 C   0  0  0  0  0  0  0  0  0  0  0  0
    6.9582    2.9235   -0.9633 C   0  0  0  0  0  0  0  0  0  0  0  0
    6.1990    4.1338   -2.9422 C   0  0  0  0  0  0  0  0  0  0  0  0
    4.8627    0.8196   -1.8148 N   0  0  0  0  0  0  0  0  0  0  0  0
    5.0777   -0.3499   -2.6091 C   0  0  0  0  0  0  0  0  0  0  0  0
    5.3612   -0.1888   -3.8185 O   0  0  0  0  0  0  0  0  0  0  0  0
    4.9498   -1.6426   -1.9806 C   0  0  1  0  0  0  0  0  0  0  0  0
    4.4189   -1.5317   -0.5503 C   0  0  0  0  0  0  0  0  0  0  0  0
    4.1886   -2.9479    0.0082 C   0  0  0  0  0  0  0  0  0  0  0  0
    5.6242   -1.0571    0.2944 C   0  0  0  0  0  0  0  0  0  0  0  0
    4.4197   -2.7433   -2.7361 N   0  0  0  0  0  0  0  0  0  0  0  0
    3.1893   -2.6681   -3.5036 C   0  0  0  0  0  0  0  0  0  0  0  0
    5.2080   -3.9590   -2.6773 C   0  0  0  0  0  0  0  0  0  0  0  0
    6.2314   -3.8459   -1.9247 O   0  0  0  0  0  0  0  0  0  0  0  0
    4.9020   -5.1236   -3.3358 O   0  0  0  0  0  0  0  0  0  0  0  0
    5.7737   -6.2768   -2.9944 C   0  0  0  0  0  0  0  0  0  0  0  0
    5.4581   -6.4372   -1.4984 C   0  0  0  0  0  0  0  0  0  0  0  0
    6.3014   -6.0727   -0.5042 C   0  0  0  0  0  0  0  0  0  0  0  0
    5.7422   -5.9953    0.7851 C   0  0  0  0  0  0  0  0  0  0  0  0
    4.3877   -6.2864    0.9897 C   0  0  0  0  0  0  0  0  0  0  0  0
    3.5571   -6.6682   -0.0266 C   0  0  0  0  0  0  0  0  0  0  0  0
    4.1037   -6.7465   -1.3095 C   0  0  0  0  0  0  0  0  0  0  0  0
    3.8852   -5.9446    2.3161 N   0  0  0  0  0  0  0  0  0  0  0  0
    2.5416   -5.7366    2.5998 C   0  0  0  0  0  0  0  0  0  0  0  0
    1.7423   -5.9346    1.5785 O   0  0  0  0  0  0  0  0  0  0  0  0
    1.8329   -5.3268    3.7963 C   0  0  1  0  0  0  0  0  0  0  0  0
    2.2978   -4.2980    4.7148 C   0  0  0  0  0  0  0  0  0  0  0  0
    3.5752   -4.4284    5.4642 C   0  0  0  0  0  0  0  0  0  0  0  0
    3.8114   -3.2058    6.3447 C   0  0  0  0  0  0  0  0  0  0  0  0
    2.7769   -2.9774    7.3145 N   0  0  0  0  0  0  0  0  0  0  0  0
    2.9765   -1.8125    8.1643 C   0  0  0  0  0  0  0  0  0  0  0  0
    4.0269   -1.1389    7.9581 O   0  0  0  0  0  0  0  0  0  0  0  0
    2.0358   -1.4587    9.1613 N   0  0  0  0  0  0  0  0  0  0  0  0
    0.4164   -5.0114    3.4121 N   0  0  0  0  0  0  0  0  0  0  0  0
    0.1082   -4.2569    2.2624 C   0  0  0  0  0  0  0  0  0  0  0  0
    1.0050   -3.7709    1.4727 O   0  0  0  0  0  0  0  0  0  0  0  0
   -1.2691   -3.9257    1.8023 C   0  0  1  0  0  0  0  0  0  0  0  0
   -1.7945   -2.7111    2.5806 C   0  0  0  0  0  0  0  0  0  0  0  0
   -3.1928   -2.4050    2.2030 C   0  0  0  0  0  0  0  0  0  0  0  0
   -1.7180   -3.0387    4.0455 C   0  0  0  0  0  0  0  0  0  0  0  0
   -1.1945   -3.5968    0.3883 N   0  0  0  0  0  0  0  0  0  0  0  0
   -1.3655   -2.3956   -0.2648 C   0  0  0  0  0  0  0  0  0  0  0  0
   -1.6199   -1.2722    0.2101 O   0  0  0  0  0  0  0  0  0  0  0  0
   -1.2232   -2.4275   -1.7773 C   0  0  0  0  0  0  0  0  0  0  0  0
   -1.2269   -1.0561   -2.3681 C   0  0  0  0  0  0  0  0  0  0  0  0
   -1.0824   -1.1001   -3.8772 C   0  0  0  0  0  0  0  0  0  0  0  0
   -1.0565    0.2298   -4.5352 C   0  0  0  0  0  0  0  0  0  0  0  0
   -2.2568    1.0832   -4.3241 C   0  0  0  0  0  0  0  0  0  0  0  0
   -2.1522    2.3596   -5.0088 N   0  0  0  0  0  0  0  0  0  0  0  0
   -1.6179    3.5983   -4.5626 C   0  0  0  0  0  0  0  0  0  0  0  0
   -1.1238    3.7471   -3.4009 O   0  0  0  0  0  0  0  0  0  0  0  0
   -1.7586    4.5572   -5.6448 C   0  0  0  0  0  0  0  0  0  0  0  0
   -2.3333    3.9644   -6.6792 C   0  0  0  0  0  0  0  0  0  0  0  0
   -2.6121    2.5649   -6.3480 C   0  0  0  0  0  0  0  0  0  0  0  0
   -3.1515    1.7742   -7.1407 O   0  0  0  0  0  0  0  0  0  0  0  0
    2.4115    2.3550    4.5913 H   0  0  0  0  0  0  0  0  0  0  0  0
    3.4871    3.8220    4.4346 H   0  0  0  0  0  0  0  0  0  0  0  0
    3.7811    2.2917    3.4464 H   0  0  0  0  0  0  0  0  0  0  0  0
    1.9925    4.6352    2.9627 H   0  0  0  0  0  0  0  0  0  0  0  0
    1.1838    3.0426    2.8752 H   0  0  0  0  0  0  0  0  0  0  0  0
    3.1803    2.1840    1.5391 H   0  0  0  0  0  0  0  0  0  0  0  0
    4.0822    5.1015    1.1715 H   0  0  0  0  0  0  0  0  0  0  0  0
    4.4193    4.1720    2.6195 H   0  0  0  0  0  0  0  0  0  0  0  0
    5.0398    3.5052    1.1246 H   0  0  0  0  0  0  0  0  0  0  0  0
    1.2297    2.6186    0.4381 H   0  0  0  0  0  0  0  0  0  0  0  0
    0.8416    4.1984   -1.2358 H   0  0  0  0  0  0  0  0  0  0  0  0
   -0.0881    5.9885   -0.1052 H   0  0  0  0  0  0  0  0  0  0  0  0
    0.5622    5.6131    1.4725 H   0  0  0  0  0  0  0  0  0  0  0  0
   -3.0516    6.5245    0.6053 H   0  0  0  0  0  0  0  0  0  0  0  0
   -1.8772    6.3908   -0.7630 H   0  0  0  0  0  0  0  0  0  0  0  0
   -3.5157    5.5479   -2.1984 H   0  0  0  0  0  0  0  0  0  0  0  0
   -4.7083    5.8939   -0.8165 H   0  0  0  0  0  0  0  0  0  0  0  0
   -5.0187    3.6557   -0.9671 H   0  0  0  0  0  0  0  0  0  0  0  0
   -3.3387    3.3970   -1.5239 H   0  0  0  0  0  0  0  0  0  0  0  0
   -4.1826    4.8168    1.0533 H   0  0  0  0  0  0  0  0  0  0  0  0
   -3.6897    3.2203    2.5993 H   0  0  0  0  0  0  0  0  0  0  0  0
   -5.2761    1.6893    2.2687 H   0  0  0  0  0  0  0  0  0  0  0  0
   -5.8141    4.0923    2.4851 H   0  0  0  0  0  0  0  0  0  0  0  0
   -6.5587    4.0340    0.7783 H   0  0  0  0  0  0  0  0  0  0  0  0
   -7.1073    2.9667    2.0670 H   0  0  0  0  0  0  0  0  0  0  0  0
   -7.5335    1.5428    0.1355 H   0  0  0  0  0  0  0  0  0  0  0  0
   -5.6884    0.0301   -1.7760 H   0  0  0  0  0  0  0  0  0  0  0  0
   -6.5903    1.9885   -2.9480 H   0  0  0  0  0  0  0  0  0  0  0  0
   -8.2569    1.5098   -2.4948 H   0  0  0  0  0  0  0  0  0  0  0  0
   -7.1600    0.4002   -3.5136 H   0  0  0  0  0  0  0  0  0  0  0  0
   -8.6368   -0.5890   -1.2843 H   0  0  0  0  0  0  0  0  0  0  0  0
   -9.2638   -1.4051   -3.4112 H   0  0  0  0  0  0  0  0  0  0  0  0
   -8.6446   -2.7899   -5.3921 H   0  0  0  0  0  0  0  0  0  0  0  0
   -6.3454   -3.7822   -5.5331 H   0  0  0  0  0  0  0  0  0  0  0  0
   -4.7336   -3.4081   -3.7741 H   0  0  0  0  0  0  0  0  0  0  0  0
   -5.3261   -2.0494   -1.8147 H   0  0  0  0  0  0  0  0  0  0  0  0
   -7.7004   -1.3379    0.5552 H   0  0  0  0  0  0  0  0  0  0  0  0
   -2.1580    0.4289    2.9028 H   0  0  0  0  0  0  0  0  0  0  0  0
   -2.2205    2.2176    3.2915 H   0  0  0  0  0  0  0  0  0  0  0  0
   -3.6610    1.1912    3.3966 H   0  0  0  0  0  0  0  0  0  0  0  0
    1.8933    4.7739   -2.7172 H   0  0  0  0  0  0  0  0  0  0  0  0
    0.6207    5.9358   -2.0801 H   0  0  0  0  0  0  0  0  0  0  0  0
    2.2024    6.5487   -2.6785 H   0  0  0  0  0  0  0  0  0  0  0  0
    2.5902    0.7007   -1.9159 H   0  0  0  0  0  0  0  0  0  0  0  0
    1.6799    0.8215   -0.3910 H   0  0  0  0  0  0  0  0  0  0  0  0
    1.2519    1.8234   -1.8738 H   0  0  0  0  0  0  0  0  0  0  0  0
    4.6143    2.1922   -3.3364 H   0  0  0  0  0  0  0  0  0  0  0  0
    6.9624    2.1656   -2.9997 H   0  0  0  0  0  0  0  0  0  0  0  0
    6.5903    2.2221   -0.1638 H   0  0  0  0  0  0  0  0  0  0  0  0
    8.0871    2.7829   -1.0126 H   0  0  0  0  0  0  0  0  0  0  0  0
    6.8650    3.9439   -0.5125 H   0  0  0  0  0  0  0  0  0  0  0  0
    6.9549    4.1991   -3.7768 H   0  0  0  0  0  0  0  0  0  0  0  0
    5.2240    4.2510   -3.4786 H   0  0  0  0  0  0  0  0  0  0  0  0
    6.4415    4.9746   -2.2660 H   0  0  0  0  0  0  0  0  0  0  0  0
    4.6005    0.7522   -0.7749 H   0  0  0  0  0  0  0  0  0  0  0  0
    6.0190   -2.0559   -1.7112 H   0  0  0  0  0  0  0  0  0  0  0  0
    3.5457   -0.9270   -0.4563 H   0  0  0  0  0  0  0  0  0  0  0  0
    3.4027   -2.7936    0.7839 H   0  0  0  0  0  0  0  0  0  0  0  0
    3.7728   -3.6221   -0.7430 H   0  0  0  0  0  0  0  0  0  0  0  0
    5.0853   -3.2812    0.5169 H   0  0  0  0  0  0  0  0  0  0  0  0
    6.3608   -0.4972   -0.2730 H   0  0  0  0  0  0  0  0  0  0  0  0
    5.2320   -0.4716    1.1207 H   0  0  0  0  0  0  0  0  0  0  0  0
    6.1320   -1.9869    0.6526 H   0  0  0  0  0  0  0  0  0  0  0  0
    3.4107   -2.5801   -4.5910 H   0  0  0  0  0  0  0  0  0  0  0  0
    2.5677   -3.5714   -3.4062 H   0  0  0  0  0  0  0  0  0  0  0  0
    2.5690   -1.8221   -3.1369 H   0  0  0  0  0  0  0  0  0  0  0  0
    5.4290   -7.1660   -3.5044 H   0  0  0  0  0  0  0  0  0  0  0  0
    6.8033   -6.0244   -3.0837 H   0  0  0  0  0  0  0  0  0  0  0  0
    7.3288   -5.8789   -0.7028 H   0  0  0  0  0  0  0  0  0  0  0  0
    6.3851   -5.7051    1.6129 H   0  0  0  0  0  0  0  0  0  0  0  0
    2.5339   -6.9440    0.0492 H   0  0  0  0  0  0  0  0  0  0  0  0
    3.4606   -7.0414   -2.1229 H   0  0  0  0  0  0  0  0  0  0  0  0
    4.5651   -5.8658    3.0912 H   0  0  0  0  0  0  0  0  0  0  0  0
    1.6754   -6.3011    4.3730 H   0  0  0  0  0  0  0  0  0  0  0  0
    2.1708   -3.2420    4.3061 H   0  0  0  0  0  0  0  0  0  0  0  0
    1.4955   -4.2586    5.5533 H   0  0  0  0  0  0  0  0  0  0  0  0
    4.4898   -4.5454    4.8619 H   0  0  0  0  0  0  0  0  0  0  0  0
    3.5672   -5.2936    6.1829 H   0  0  0  0  0  0  0  0  0  0  0  0
    4.7798   -3.3197    6.8529 H   0  0  0  0  0  0  0  0  0  0  0  0
    3.8514   -2.3379    5.6520 H   0  0  0  0  0  0  0  0  0  0  0  0
    1.9197   -3.5741    7.4398 H   0  0  0  0  0  0  0  0  0  0  0  0
    1.7680   -2.0624    9.9578 H   0  0  0  0  0  0  0  0  0  0  0  0
    1.5949   -0.4956    9.0540 H   0  0  0  0  0  0  0  0  0  0  0  0
   -0.3746   -5.3452    3.9917 H   0  0  0  0  0  0  0  0  0  0  0  0
   -1.9828   -4.6964    1.9795 H   0  0  0  0  0  0  0  0  0  0  0  0
   -1.0984   -1.8469    2.4092 H   0  0  0  0  0  0  0  0  0  0  0  0
   -3.8426   -2.9426    2.9823 H   0  0  0  0  0  0  0  0  0  0  0  0
   -3.4474   -2.9224    1.2454 H   0  0  0  0  0  0  0  0  0  0  0  0
   -3.4925   -1.3686    2.1097 H   0  0  0  0  0  0  0  0  0  0  0  0
   -0.6598   -3.0151    4.4233 H   0  0  0  0  0  0  0  0  0  0  0  0
   -2.2701   -3.9460    4.3239 H   0  0  0  0  0  0  0  0  0  0  0  0
   -2.2099   -2.2236    4.6665 H   0  0  0  0  0  0  0  0  0  0  0  0
   -0.9641   -4.4580   -0.2219 H   0  0  0  0  0  0  0  0  0  0  0  0
   -1.9907   -3.0873   -2.2045 H   0  0  0  0  0  0  0  0  0  0  0  0
   -0.2227   -2.8739   -1.9429 H   0  0  0  0  0  0  0  0  0  0  0  0
   -2.1371   -0.5328   -2.0595 H   0  0  0  0  0  0  0  0  0  0  0  0
   -0.3828   -0.4270   -1.9976 H   0  0  0  0  0  0  0  0  0  0  0  0
   -0.0608   -1.5527   -4.0413 H   0  0  0  0  0  0  0  0  0  0  0  0
   -1.7700   -1.8329   -4.3553 H   0  0  0  0  0  0  0  0  0  0  0  0
   -0.1060    0.7527   -4.2497 H   0  0  0  0  0  0  0  0  0  0  0  0
   -0.9616    0.0515   -5.6369 H   0  0  0  0  0  0  0  0  0  0  0  0
   -2.2615    1.3488   -3.2249 H   0  0  0  0  0  0  0  0  0  0  0  0
   -3.1830    0.5538   -4.5187 H   0  0  0  0  0  0  0  0  0  0  0  0
   -1.4236    5.5860   -5.5486 H   0  0  0  0  0  0  0  0  0  0  0  0
   -2.5618    4.4603   -7.6356 H   0  0  0  0  0  0  0  0  0  0  0  0
  1  2  1  0
  2  3  1  0
  3  4  1  0
  3  5  1  0
  5  6  1  0
  6  7  1  0
  7  8  1  0
  8  9  2  0
  8 10  1  0
 10 11  1  0
 11 12  1  0
 12 13  1  0
 13 14  1  0
 14 15  1  0
 15 16  1  0
 16 17  1  0
 16 18  1  0
 18 19  2  0
 18 20  1  0
 20 21  1  0
 21 22  1  0
 21 23  1  0
 23 24  1  0
 24 25  2  0
 25 26  1  0
 26 27  2  0
 27 28  1  0
 28 29  2  0
 23 30  1  0
 15 31  1  0
 31 32  1  0
  6 33  1  0
 33 34  1  0
  5 35  1  0
 35 36  1  0
 35 37  1  0
 37 38  2  0
 37 39  1  0
 39 40  1  0
 40 41  1  0
 40 42  1  0
 39 43  1  0
 43 44  1  0
 44 45  2  0
 44 46  1  0
 46 47  1  0
 47 48  1  0
 47 49  1  0
 46 50  1  0
 50 51  1  0
 50 52  1  0
 52 53  2  0
 52 54  1  0
 54 55  1  0
 55 56  1  0
 56 57  1  0
 57 58  2  0
 58 59  1  0
 59 60  2  0
 60 61  1  0
 59 62  1  0
 62 63  1  0
 63 64  2  0
 63 65  1  0
 65 66  1  0
 66 67  1  0
 67 68  1  0
 68 69  1  0
 69 70  1  0
 70 71  2  0
 70 72  1  0
 65 73  1  0
 73 74  1  0
 74 75  2  0
 74 76  1  0
 76 77  1  0
 77 78  1  0
 77 79  1  0
 76 80  1  0
 80 81  1  0
 81 82  2  0
 81 83  1  0
 83 84  1  0
 84 85  1  0
 85 86  1  0
 86 87  1  0
 87 88  1  0
 88 89  1  0
 89 90  2  0
 89 91  1  0
 91 92  2  0
 92 93  1  0
 93 94  2  0
 14 10  1  0
 29 24  1  0
 61 56  2  0
 93 88  1  0
  1 95  1  0
  1 96  1  0
  1 97  1  0
  2 98  1  0
  2 99  1  0
  3100  1  1
  4101  1  0
  4102  1  0
  4103  1  0
  5104  1  1
  6105  1  6
  7106  1  0
  7107  1  0
 11108  1  0
 11109  1  0
 12110  1  0
 12111  1  0
 13112  1  0
 13113  1  0
 14114  1  1
 15115  1  1
 16116  1  1
 17117  1  0
 17118  1  0
 17119  1  0
 20120  1  0
 21121  1  6
 22122  1  0
 22123  1  0
 22124  1  0
 23125  1  1
 25126  1  0
 26127  1  0
 27128  1  0
 28129  1  0
 29130  1  0
 30131  1  0
 32132  1  0
 32133  1  0
 32134  1  0
 34135  1  0
 34136  1  0
 34137  1  0
 36138  1  0
 36139  1  0
 36140  1  0
 39141  1  6
 40142  1  0
 41143  1  0
 41144  1  0
 41145  1  0
 42146  1  0
 42147  1  0
 42148  1  0
 43149  1  0
 46150  1  1
 47151  1  0
 48152  1  0
 48153  1  0
 48154  1  0
 49155  1  0
 49156  1  0
 49157  1  0
 51158  1  0
 51159  1  0
 51160  1  0
 55161  1  0
 55162  1  0
 57163  1  0
 58164  1  0
 60165  1  0
 61166  1  0
 62167  1  0
 65168  1  1
 66169  1  0
 66170  1  0
 67171  1  0
 67172  1  0
 68173  1  0
 68174  1  0
 69175  1  0
 72176  1  0
 72177  1  0
 73178  1  0
 76179  1  6
 77180  1  0
 78181  1  0
 78182  1  0
 78183  1  0
 79184  1  0
 79185  1  0
 79186  1  0
 80187  1  0
 83188  1  0
 83189  1  0
 84190  1  0
 84191  1  0
 85192  1  0
 85193  1  0
 86194  1  0
 86195  1  0
 87196  1  0
 87197  1  0
 91198  1  0
 92199  1  0
M  END
$$$$

     RDKit          3D

199202  0  0  0  0  0  0  0  0999 V2000
    5.7656   -3.1850    2.1988 C   0  0  0  0  0  0  0  0  0  0  0  0
    4.5573   -2.2832    2.1093 C   0  0  0  0  0  0  0  0  0  0  0  0
    3.3589   -2.9942    1.4864 C   0  0  2  0  0  0  0  0  0  0  0  0
    3.7642   -3.4134    0.1093 C   0  0  0  0  0  0  0  0  0  0  0  0
    2.2708   -1.8867    1.3617 C   0  0  1  0  0  0  0  0  0  0  0  0
    1.0361   -2.4515    0.7692 C   0  0  1  0  0  0  0  0  0  0  0  0
    0.5723   -3.7676    1.2589 C   0  0  0  0  0  0  0  0  0  0  0  0
   -0.6934   -4.2955    0.6890 C   0  0  0  0  0  0  0  0  0  0  0  0
   -1.4771   -3.6512   -0.0367 O   0  0  0  0  0  0  0  0  0  0  0  0
   -1.0418   -5.6283    0.9924 N   0  0  0  0  0  0  0  0  0  0  0  0
   -0.3288   -6.6216    1.8280 C   0  0  0  0  0  0  0  0  0  0  0  0
   -1.4703   -7.0847    2.7632 C   0  0  0  0  0  0  0  0  0  0  0  0
   -2.7615   -6.5988    2.0500 C   0  0  0  0  0  0  0  0  0  0  0  0
   -2.2510   -6.3871    0.6574 C   0  0  1  0  0  0  0  0  0  0  0  0
   -3.1571   -5.8296   -0.3425 C   0  0  1  0  0  0  0  0  0  0  0  0
   -2.8519   -6.1418   -1.7923 C   0  0  1  0  0  0  0  0  0  0  0  0
   -3.9468   -5.3918   -2.5884 C   0  0  0  0  0  0  0  0  0  0  0  0
   -1.5512   -6.0337   -2.3583 C   0  0  0  0  0  0  0  0  0  0  0  0
   -0.9632   -7.1409   -2.7277 O   0  0  0  0  0  0  0  0  0  0  0  0
   -0.7484   -4.8909   -2.6084 N   0  0  0  0  0  0  0  0  0  0  0  0
    0.5544   -5.0136   -3.2244 C   0  0  2  0  0  0  0  0  0  0  0  0
    1.7059   -4.7453   -2.2890 C   0  0  0  0  0  0  0  0  0  0  0  0
    0.6472   -4.0715   -4.3849 C   0  0  1  0  0  0  0  0  0  0  0  0
    1.9573   -4.2302   -5.0390 C   0  0  0  0  0  0  0  0  0  0  0  0
    2.8905   -3.2056   -4.8703 C   0  0  0  0  0  0  0  0  0  0  0  0
    4.1430   -3.2698   -5.4437 C   0  0  0  0  0  0  0  0  0  0  0  0
    4.4795   -4.3728   -6.2008 C   0  0  0  0  0  0  0  0  0  0  0  0
    3.5510   -5.3981   -6.3725 C   0  0  0  0  0  0  0  0  0  0  0  0
    2.2950   -5.3295   -5.7954 C   0  0  0  0  0  0  0  0  0  0  0  0
   -0.3406   -4.3928   -5.3282 O   0  0  0  0  0  0  0  0  0  0  0  0
   -4.3747   -6.6259   -0.1774 O   0  0  0  0  0  0  0  0  0  0  0  0
   -5.4351   -5.7951    0.0713 C   0  0  0  0  0  0  0  0  0  0  0  0
    0.0860   -1.4716    0.5806 O   0  0  0  0  0  0  0  0  0  0  0  0
   -0.0896   -1.1023   -0.7334 C   0  0  0  0  0  0  0  0  0  0  0  0
    2.2351   -1.2099    2.6215 N   0  0  0  0  0  0  0  0  0  0  0  0
    1.5884   -1.9000    3.7616 C   0  0  0  0  0  0  0  0  0  0  0  0
    2.7654    0.0668    2.9203 C   0  0  0  0  0  0  0  0  0  0  0  0
    2.6996    0.4446    4.1670 O   0  0  0  0  0  0  0  0  0  0  0  0
    3.3946    1.0450    2.0423 C   0  0  1  0  0  0  0  0  0  0  0  0
    2.3636    2.1177    1.6293 C   0  0  0  0  0  0  0  0  0  0  0  0
    3.1072    3.1055    0.7457 C   0  0  0  0  0  0  0  0  0  0  0  0
    1.2487    1.5927    0.7939 C   0  0  0  0  0  0  0  0  0  0  0  0
    4.3817    1.8678    2.7924 N   0  0  0  0  0  0  0  0  0  0  0  0
    5.6918    2.0079    2.2518 C   0  0  0  0  0  0  0  0  0  0  0  0
    5.8977    1.3889    1.1566 O   0  0  0  0  0  0  0  0  0  0  0  0
    6.7934    2.7640    2.7936 C   0  0  1  0  0  0  0  0  0  0  0  0
    7.2861    3.7806    1.7377 C   0  0  0  0  0  0  0  0  0  0  0  0
    6.3006    4.7678    1.2789 C   0  0  0  0  0  0  0  0  0  0  0  0
    8.6318    4.3647    2.1403 C   0  0  0  0  0  0  0  0  0  0  0  0
    6.6093    3.3224    4.0774 N   0  0  0  0  0  0  0  0  0  0  0  0
    7.7866    3.1376    5.0052 C   0  0  0  0  0  0  0  0  0  0  0  0
    5.5476    4.0159    4.6532 C   0  0  0  0  0  0  0  0  0  0  0  0
    5.6892    4.5714    5.8024 O   0  0  0  0  0  0  0  0  0  0  0  0
    4.2622    4.1953    4.1279 O   0  0  0  0  0  0  0  0  0  0  0  0
    3.3196    4.9547    4.8857 C   0  0  0  0  0  0  0  0  0  0  0  0
    1.9749    5.0014    4.3013 C   0  0  0  0  0  0  0  0  0  0  0  0
    1.0610    4.0616    4.8060 C   0  0  0  0  0  0  0  0  0  0  0  0
   -0.2313    3.9767    4.3613 C   0  0  0  0  0  0  0  0  0  0  0  0
   -0.6659    4.8455    3.3756 C   0  0  0  0  0  0  0  0  0  0  0  0
    0.2104    5.7647    2.8743 C   0  0  0  0  0  0  0  0  0  0  0  0
    1.5340    5.8552    3.3271 C   0  0  0  0  0  0  0  0  0  0  0  0
   -2.0257    4.7084    2.9830 N   0  0  0  0  0  0  0  0  0  0  0  0
   -2.4796    3.7779    2.0143 C   0  0  0  0  0  0  0  0  0  0  0  0
   -1.7383    2.9787    1.3958 O   0  0  0  0  0  0  0  0  0  0  0  0
   -3.9253    3.7362    1.7043 C   0  0  1  0  0  0  0  0  0  0  0  0
   -4.5657    5.0426    1.4483 C   0  0  0  0  0  0  0  0  0  0  0  0
   -4.0730    5.8666    0.3288 C   0  0  0  0  0  0  0  0  0  0  0  0
   -2.6601    6.3047    0.3506 C   0  0  0  0  0  0  0  0  0  0  0  0
   -2.3226    7.1247   -0.8166 N   0  0  0  0  0  0  0  0  0  0  0  0
   -2.4304    6.6360   -2.1483 C   0  0  0  0  0  0  0  0  0  0  0  0
   -2.8097    5.4962   -2.4588 O   0  0  0  0  0  0  0  0  0  0  0  0
   -2.0780    7.5144   -3.2318 N   0  0  0  0  0  0  0  0  0  0  0  0
   -4.2361    2.7011    0.7256 N   0  0  0  0  0  0  0  0  0  0  0  0
   -4.8949    1.5065    1.1516 C   0  0  0  0  0  0  0  0  0  0  0  0
   -5.2265    1.2972    2.3481 O   0  0  0  0  0  0  0  0  0  0  0  0
   -5.2346    0.4093    0.1723 C   0  0  1  0  0  0  0  0  0  0  0  0
   -6.7258    0.2111    0.1787 C   0  0  0  0  0  0  0  0  0  0  0  0
   -7.2419   -0.1792    1.5427 C   0  0  0  0  0  0  0  0  0  0  0  0
   -7.1217   -0.8986   -0.8011 C   0  0  0  0  0  0  0  0  0  0  0  0
   -4.8521    0.7828   -1.1643 N   0  0  0  0  0  0  0  0  0  0  0  0
   -3.9654    0.0526   -1.9940 C   0  0  0  0  0  0  0  0  0  0  0  0
   -3.3989   -1.0165   -1.6743 O   0  0  0  0  0  0  0  0  0  0  0  0
   -3.7327    0.6845   -3.3666 C   0  0  0  0  0  0  0  0  0  0  0  0
   -2.7660   -0.1800   -4.0721 C   0  0  0  0  0  0  0  0  0  0  0  0
   -2.3574    0.1687   -5.4339 C   0  0  0  0  0  0  0  0  0  0  0  0
   -1.5890    1.3689   -5.7632 C   0  0  0  0  0  0  0  0  0  0  0  0
   -2.1647    2.7009   -5.4306 C   0  0  0  0  0  0  0  0  0  0  0  0
   -1.2668    3.7730   -5.9357 N   0  0  0  0  0  0  0  0  0  0  0  0
   -1.3024    4.4058   -7.2013 C   0  0  0  0  0  0  0  0  0  0  0  0
   -2.1163    4.1650   -8.1373 O   0  0  0  0  0  0  0  0  0  0  0  0
   -0.2267    5.3763   -7.2055 C   0  0  0  0  0  0  0  0  0  0  0  0
    0.4329    5.3619   -6.0491 C   0  0  0  0  0  0  0  0  0  0  0  0
   -0.1862    4.3658   -5.2132 C   0  0  0  0  0  0  0  0  0  0  0  0
    0.0973    4.0042   -4.0375 O   0  0  0  0  0  0  0  0  0  0  0  0
    6.3733   -2.9628    3.1107 H   0  0  0  0  0  0  0  0  0  0  0  0
    6.4207   -3.0155    1.3181 H   0  0  0  0  0  0  0  0  0  0  0  0
    5.4164   -4.2155    2.1925 H   0  0  0  0  0  0  0  0  0  0  0  0
    4.8005   -1.4615    1.3773 H   0  0  0  0  0  0  0  0  0  0  0  0
    4.3507   -1.8086    3.0664 H   0  0  0  0  0  0  0  0  0  0  0  0
    3.0257   -3.8421    2.0646 H   0  0  0  0  0  0  0  0  0  0  0  0
    3.5253   -4.4709   -0.0789 H   0  0  0  0  0  0  0  0  0  0  0  0
    3.3936   -2.7127   -0.6716 H   0  0  0  0  0  0  0  0  0  0  0  0
    4.8907   -3.3629   -0.0235 H   0  0  0  0  0  0  0  0  0  0  0  0
    2.7566   -1.2083    0.6171 H   0  0  0  0  0  0  0  0  0  0  0  0
    1.3806   -2.6839   -0.3295 H   0  0  0  0  0  0  0  0  0  0  0  0
    1.4122   -4.4898    1.0894 H   0  0  0  0  0  0  0  0  0  0  0  0
    0.5033   -3.7252    2.3790 H   0  0  0  0  0  0  0  0  0  0  0  0
    0.4289   -6.1813    2.4653 H   0  0  0  0  0  0  0  0  0  0  0  0
    0.0873   -7.4380    1.2399 H   0  0  0  0  0  0  0  0  0  0  0  0
   -1.4137   -8.1700    2.8112 H   0  0  0  0  0  0  0  0  0  0  0  0
   -1.3821   -6.6273    3.7636 H   0  0  0  0  0  0  0  0  0  0  0  0
   -3.4555   -7.4572    2.1600 H   0  0  0  0  0  0  0  0  0  0  0  0
   -3.0970   -5.6835    2.5645 H   0  0  0  0  0  0  0  0  0  0  0  0
   -1.8994   -7.4399    0.3396 H   0  0  0  0  0  0  0  0  0  0  0  0
   -3.4920   -4.8090   -0.2485 H   0  0  0  0  0  0  0  0  0  0  0  0
   -3.1957   -7.2305   -1.9484 H   0  0  0  0  0  0  0  0  0  0  0  0
   -4.8456   -5.9801   -2.7369 H   0  0  0  0  0  0  0  0  0  0  0  0
   -3.4771   -5.3007   -3.6117 H   0  0  0  0  0  0  0  0  0  0  0  0
   -4.0648   -4.3577   -2.2508 H   0  0  0  0  0  0  0  0  0  0  0  0
   -1.1505   -3.9712   -2.3252 H   0  0  0  0  0  0  0  0  0  0  0  0
    0.6997   -6.0571   -3.6297 H   0  0  0  0  0  0  0  0  0  0  0  0
    1.4658   -4.9162   -1.2407 H   0  0  0  0  0  0  0  0  0  0  0  0
    2.0972   -3.7151   -2.3997 H   0  0  0  0  0  0  0  0  0  0  0  0
    2.5665   -5.4310   -2.5434 H   0  0  0  0  0  0  0  0  0  0  0  0
    0.4628   -3.0187   -4.0640 H   0  0  0  0  0  0  0  0  0  0  0  0
    2.6347   -2.3222   -4.2700 H   0  0  0  0  0  0  0  0  0  0  0  0
    4.8202   -2.4401   -5.2710 H   0  0  0  0  0  0  0  0  0  0  0  0
    5.4675   -4.4004   -6.6390 H   0  0  0  0  0  0  0  0  0  0  0  0
    3.8887   -6.2284   -6.9766 H   0  0  0  0  0  0  0  0  0  0  0  0
    1.5904   -6.1402   -5.9429 H   0  0  0  0  0  0  0  0  0  0  0  0
   -0.3267   -3.6084   -5.9682 H   0  0  0  0  0  0  0  0  0  0  0  0
   -5.3113   -5.1904    0.9969 H   0  0  0  0  0  0  0  0  0  0  0  0
   -6.3148   -6.4546    0.2469 H   0  0  0  0  0  0  0  0  0  0  0  0
   -5.7279   -5.1011   -0.7108 H   0  0  0  0  0  0  0  0  0  0  0  0
    0.8917   -0.7402   -1.1375 H   0  0  0  0  0  0  0  0  0  0  0  0
   -0.7470   -0.1813   -0.8058 H   0  0  0  0  0  0  0  0  0  0  0  0
   -0.4762   -1.8075   -1.4457 H   0  0  0  0  0  0  0  0  0  0  0  0
    0.5012   -1.7853    3.6411 H   0  0  0  0  0  0  0  0  0  0  0  0
    1.8083   -1.3119    4.7165 H   0  0  0  0  0  0  0  0  0  0  0  0
    1.9769   -2.8925    3.9421 H   0  0  0  0  0  0  0  0  0  0  0  0
    3.8687    0.7065    1.1354 H   0  0  0  0  0  0  0  0  0  0  0  0
    2.0572    2.6502    2.5223 H   0  0  0  0  0  0  0  0  0  0  0  0
    3.7696    2.6002    0.0260 H   0  0  0  0  0  0  0  0  0  0  0  0
    3.5697    3.9103    1.3326 H   0  0  0  0  0  0  0  0  0  0  0  0
    2.3444    3.6279    0.0922 H   0  0  0  0  0  0  0  0  0  0  0  0
    0.4704    1.0685    1.3248 H   0  0  0  0  0  0  0  0  0  0  0  0
    0.7360    2.5271    0.3852 H   0  0  0  0  0  0  0  0  0  0  0  0
    1.6608    1.0906   -0.0877 H   0  0  0  0  0  0  0  0  0  0  0  0
    4.1299    2.3285    3.6840 H   0  0  0  0  0  0  0  0  0  0  0  0
    7.7541    2.1008    2.8137 H   0  0  0  0  0  0  0  0  0  0  0  0
    7.5430    3.1241    0.8418 H   0  0  0  0  0  0  0  0  0  0  0  0
    5.6890    4.4102    0.3944 H   0  0  0  0  0  0  0  0  0  0  0  0
    6.7917    5.7057    0.8608 H   0  0  0  0  0  0  0  0  0  0  0  0
    5.6005    5.0339    2.0673 H   0  0  0  0  0  0  0  0  0  0  0  0
    9.2362    3.6494    2.7111 H   0  0  0  0  0  0  0  0  0  0  0  0
    8.4301    5.2992    2.6867 H   0  0  0  0  0  0  0  0  0  0  0  0
    9.2424    4.5956    1.2200 H   0  0  0  0  0  0  0  0  0  0  0  0
    7.3751    3.1019    6.0292 H   0  0  0  0  0  0  0  0  0  0  0  0
    8.3259    2.2251    4.7396 H   0  0  0  0  0  0  0  0  0  0  0  0
    8.4604    3.9932    4.9370 H   0  0  0  0  0  0  0  0  0  0  0  0
    3.7123    6.0008    4.8848 H   0  0  0  0  0  0  0  0  0  0  0  0
    3.2705    4.6052    5.9325 H   0  0  0  0  0  0  0  0  0  0  0  0
    1.3644    3.3567    5.5841 H   0  0  0  0  0  0  0  0  0  0  0  0
   -0.8979    3.2257    4.7934 H   0  0  0  0  0  0  0  0  0  0  0  0
   -0.1315    6.4406    2.1068 H   0  0  0  0  0  0  0  0  0  0  0  0
    2.2317    6.5747    2.9404 H   0  0  0  0  0  0  0  0  0  0  0  0
   -2.7306    5.3470    3.4498 H   0  0  0  0  0  0  0  0  0  0  0  0
   -4.3970    3.3391    2.6567 H   0  0  0  0  0  0  0  0  0  0  0  0
   -4.5296    5.6179    2.4223 H   0  0  0  0  0  0  0  0  0  0  0  0
   -5.6774    4.9122    1.2898 H   0  0  0  0  0  0  0  0  0  0  0  0
   -4.2894    5.4133   -0.6735 H   0  0  0  0  0  0  0  0  0  0  0  0
   -4.7079    6.8049    0.3127 H   0  0  0  0  0  0  0  0  0  0  0  0
   -1.9356    5.4505    0.2910 H   0  0  0  0  0  0  0  0  0  0  0  0
   -2.3543    6.8810    1.2250 H   0  0  0  0  0  0  0  0  0  0  0  0
   -1.9834    8.1192   -0.7125 H   0  0  0  0  0  0  0  0  0  0  0  0
   -2.8820    7.9495   -3.7412 H   0  0  0  0  0  0  0  0  0  0  0  0
   -1.1051    7.7144   -3.5062 H   0  0  0  0  0  0  0  0  0  0  0  0
   -3.9754    2.8265   -0.2950 H   0  0  0  0  0  0  0  0  0  0  0  0
   -4.7558   -0.5197    0.5118 H   0  0  0  0  0  0  0  0  0  0  0  0
   -7.2729    1.1193   -0.1433 H   0  0  0  0  0  0  0  0  0  0  0  0
   -7.5127    0.7422    2.1135 H   0  0  0  0  0  0  0  0  0  0  0  0
   -6.4181   -0.7556    2.0275 H   0  0  0  0  0  0  0  0  0  0  0  0
   -8.1370   -0.7913    1.4459 H   0  0  0  0  0  0  0  0  0  0  0  0
   -6.3068   -1.6433   -0.7875 H   0  0  0  0  0  0  0  0  0  0  0  0
   -7.3066   -0.4842   -1.8066 H   0  0  0  0  0  0  0  0  0  0  0  0
   -8.0432   -1.3587   -0.4280 H   0  0  0  0  0  0  0  0  0  0  0  0
   -5.2950    1.6863   -1.5215 H   0  0  0  0  0  0  0  0  0  0  0  0
   -4.7313    0.7270   -3.8835 H   0  0  0  0  0  0  0  0  0  0  0  0
   -3.4457    1.6972   -3.1605 H   0  0  0  0  0  0  0  0  0  0  0  0
   -1.8601   -0.3912   -3.4068 H   0  0  0  0  0  0  0  0  0  0  0  0
   -3.2474   -1.2195   -4.1361 H   0  0  0  0  0  0  0  0  0  0  0  0
   -1.8276   -0.7184   -5.9242 H   0  0  0  0  0  0  0  0  0  0  0  0
   -3.3267    0.1838   -6.0621 H   0  0  0  0  0  0  0  0  0  0  0  0
   -0.5372    1.2926   -5.3249 H   0  0  0  0  0  0  0  0  0  0  0  0
   -1.3561    1.3766   -6.8902 H   0  0  0  0  0  0  0  0  0  0  0  0
   -3.1662    2.8882   -5.8072 H   0  0  0  0  0  0  0  0  0  0  0  0
   -2.1494    2.8297   -4.3056 H   0  0  0  0  0  0  0  0  0  0  0  0
    0.0142    6.0301   -8.0395 H   0  0  0  0  0  0  0  0  0  0  0  0
    1.2838    5.9681   -5.7429 H   0  0  0  0  0  0  0  0  0  0  0  0
  1  2  1  0
  2  3  1  0
  3  4  1  0
  3  5  1  0
  5  6  1  0
  6  7  1  0
  7  8  1  0
  8  9  2  0
  8 10  1  0
 10 11  1  0
 11 12  1  0
 12 13  1  0
 13 14  1  0
 14 15  1  0
 15 16  1  0
 16 17  1  0
 16 18  1  0
 18 19  2  0
 18 20  1  0
 20 21  1  0
 21 22  1  0
 21 23  1  0
 23 24  1  0
 24 25  2  0
 25 26  1  0
 26 27  2  0
 27 28  1  0
 28 29  2  0
 23 30  1  0
 15 31  1  0
 31 32  1  0
  6 33  1  0
 33 34  1  0
  5 35  1  0
 35 36  1  0
 35 37  1  0
 37 38  2  0
 37 39  1  0
 39 40  1  0
 40 41  1  0
 40 42  1  0
 39 43  1  0
 43 44  1  0
 44 45  2  0
 44 46  1  0
 46 47  1  0
 47 48  1  0
 47 49  1  0
 46 50  1  0
 50 51  1  0
 50 52  1  0
 52 53  2  0
 52 54  1  0
 54 55  1  0
 55 56  1  0
 56 57  1  0
 57 58  2  0
 58 59  1  0
 59 60  2  0
 60 61  1  0
 59 62  1  0
 62 63  1  0
 63 64  2  0
 63 65  1  0
 65 66  1  0
 66 67  1  0
 67 68  1  0
 68 69  1  0
 69 70  1  0
 70 71  2  0
 70 72  1  0
 65 73  1  0
 73 74  1  0
 74 75  2  0
 74 76  1  0
 76 77  1  0
 77 78  1  0
 77 79  1  0
 76 80  1  0
 80 81  1  0
 81 82  2  0
 81 83  1  0
 83 84  1  0
 84 85  1  0
 85 86  1  0
 86 87  1  0
 87 88  1  0
 88 89  1  0
 89 90  2  0
 89 91  1  0
 91 92  2  0
 92 93  1  0
 93 94  2  0
 14 10  1  0
 29 24  1  0
 61 56  2  0
 93 88  1  0
  1 95  1  0
  1 96  1  0
  1 97  1  0
  2 98  1  0
  2 99  1  0
  3100  1  1
  4101  1  0
  4102  1  0
  4103  1  0
  5104  1  6
  6105  1  6
  7106  1  0
  7107  1  0
 11108  1  0
 11109  1  0
 12110  1  0
 12111  1  0
 13112  1  0
 13113  1  0
 14114  1  6
 15115  1  6
 16116  1  1
 17117  1  0
 17118  1  0
 17119  1  0
 20120  1  0
 21121  1  6
 22122  1  0
 22123  1  0
 22124  1  0
 23125  1  1
 25126  1  0
 26127  1  0
 27128  1  0
 28129  1  0
 29130  1  0
 30131  1  0
 32132  1  0
 32133  1  0
 32134  1  0
 34135  1  0
 34136  1  0
 34137  1  0
 36138  1  0
 36139  1  0
 36140  1  0
 39141  1  6
 40142  1  0
 41143  1  0
 41144  1  0
 41145  1  0
 42146  1  0
 42147  1  0
 42148  1  0
 43149  1  0
 46150  1  1
 47151  1  0
 48152  1  0
 48153  1  0
 48154  1  0
 49155  1  0
 49156  1  0
 49157  1  0
 51158  1  0
 51159  1  0
 51160  1  0
 55161  1  0
 55162  1  0
 57163  1  0
 58164  1  0
 60165  1  0
 61166  1  0
 62167  1  0
 65168  1  1
 66169  1  0
 66170  1  0
 67171  1  0
 67172  1  0
 68173  1  0
 68174  1  0
 69175  1  0
 72176  1  0
 72177  1  0
 73178  1  0
 76179  1  1
 77180  1  0
 78181  1  0
 78182  1  0
 78183  1  0
 79184  1  0
 79185  1  0
 79186  1  0
 80187  1  0
 83188  1  0
 83189  1  0
 84190  1  0
 84191  1  0
 85192  1  0
 85193  1  0
 86194  1  0
 86195  1  0
 87196  1  0
 87197  1  0
 91198  1  0
 92199  1  0
M  END
$$$$

     RDKit          3D

199202  0  0  0  0  0  0  0  0999 V2000
   -2.4826   -2.8000    2.1501 C   0  0  0  0  0  0  0  0  0  0  0  0
   -2.8790   -2.1195    3.4102 C   0  0  0  0  0  0  0  0  0  0  0  0
   -2.4433   -0.6714    3.5428 C   0  0  2  0  0  0  0  0  0  0  0  0
   -2.9413   -0.3252    4.9632 C   0  0  0  0  0  0  0  0  0  0  0  0
   -2.9635    0.2450    2.5315 C   0  0  1  0  0  0  0  0  0  0  0  0
   -4.3961    0.5565    2.3831 C   0  0  1  0  0  0  0  0  0  0  0  0
   -4.7087    0.9835    0.9160 C   0  0  0  0  0  0  0  0  0  0  0  0
   -4.5362   -0.1131   -0.0369 C   0  0  0  0  0  0  0  0  0  0  0  0
   -4.6082   -1.2926    0.4526 O   0  0  0  0  0  0  0  0  0  0  0  0
   -4.3129   -0.0265   -1.4214 N   0  0  0  0  0  0  0  0  0  0  0  0
   -4.0253    1.1469   -2.2633 C   0  0  0  0  0  0  0  0  0  0  0  0
   -4.8099    0.9465   -3.5361 C   0  0  0  0  0  0  0  0  0  0  0  0
   -5.2959   -0.4767   -3.4884 C   0  0  0  0  0  0  0  0  0  0  0  0
   -4.4599   -1.1071   -2.3723 C   0  0  1  0  0  0  0  0  0  0  0  0
   -3.2645   -1.7501   -2.9567 C   0  0  1  0  0  0  0  0  0  0  0  0
   -2.5586   -2.6679   -1.9522 C   0  0  1  0  0  0  0  0  0  0  0  0
   -3.4047   -3.7953   -1.4761 C   0  0  0  0  0  0  0  0  0  0  0  0
   -1.2807   -3.1146   -2.5310 C   0  0  0  0  0  0  0  0  0  0  0  0
   -0.6172   -2.4700   -3.3898 O   0  0  0  0  0  0  0  0  0  0  0  0
   -0.7078   -4.3649   -2.1349 N   0  0  0  0  0  0  0  0  0  0  0  0
    0.5294   -4.8773   -2.6828 C   0  0  2  0  0  0  0  0  0  0  0  0
    0.1924   -6.1727   -3.4242 C   0  0  0  0  0  0  0  0  0  0  0  0
    1.5882   -5.1385   -1.6367 C   0  0  1  0  0  0  0  0  0  0  0  0
    2.8049   -5.7597   -2.2357 C   0  0  0  0  0  0  0  0  0  0  0  0
    3.0363   -7.1086   -2.1154 C   0  0  0  0  0  0  0  0  0  0  0  0
    4.1606   -7.7312   -2.6664 C   0  0  0  0  0  0  0  0  0  0  0  0
    5.0855   -6.9722   -3.3641 C   0  0  0  0  0  0  0  0  0  0  0  0
    4.8676   -5.6286   -3.4924 C   0  0  0  0  0  0  0  0  0  0  0  0
    3.7369   -5.0226   -2.9330 C   0  0  0  0  0  0  0  0  0  0  0  0
    1.9323   -3.9753   -0.9672 O   0  0  0  0  0  0  0  0  0  0  0  0
   -3.8121   -2.6978   -3.8717 O   0  0  0  0  0  0  0  0  0  0  0  0
   -3.3667   -2.6953   -5.1370 C   0  0  0  0  0  0  0  0  0  0  0  0
   -5.2870   -0.4980    2.6633 O   0  0  0  0  0  0  0  0  0  0  0  0
   -6.3006    0.0040    3.5142 C   0  0  0  0  0  0  0  0  0  0  0  0
   -2.1434    1.4860    2.3463 N   0  0  0  0  0  0  0  0  0  0  0  0
   -2.2523    2.4015    3.4793 C   0  0  0  0  0  0  0  0  0  0  0  0
   -1.4183    1.7365    1.1804 C   0  0  0  0  0  0  0  0  0  0  0  0
   -1.5621    0.8871    0.2234 O   0  0  0  0  0  0  0  0  0  0  0  0
   -0.4998    2.8489    0.8802 C   0  0  1  0  0  0  0  0  0  0  0  0
   -1.0785    3.7645   -0.1956 C   0  0  0  0  0  0  0  0  0  0  0  0
   -0.0710    4.8381   -0.5000 C   0  0  0  0  0  0  0  0  0  0  0  0
   -2.4389    4.2714    0.0523 C   0  0  0  0  0  0  0  0  0  0  0  0
    0.0694    3.5123    1.9930 N   0  0  0  0  0  0  0  0  0  0  0  0
   -0.0157    4.8026    2.5258 C   0  0  0  0  0  0  0  0  0  0  0  0
   -0.7211    5.7469    2.0905 O   0  0  0  0  0  0  0  0  0  0  0  0
    0.8005    5.1031    3.7288 C   0  0  1  0  0  0  0  0  0  0  0  0
    2.1695    5.6418    3.4001 C   0  0  0  0  0  0  0  0  0  0  0  0
    2.1930    6.9084    2.6230 C   0  0  0  0  0  0  0  0  0  0  0  0
    3.0525    4.5820    2.7528 C   0  0  0  0  0  0  0  0  0  0  0  0
    0.1626    5.9511    4.7097 N   0  0  0  0  0  0  0  0  0  0  0  0
   -0.2914    7.2952    4.4880 C   0  0  0  0  0  0  0  0  0  0  0  0
    0.0021    5.3339    6.0287 C   0  0  0  0  0  0  0  0  0  0  0  0
   -0.5291    5.9575    6.9756 O   0  0  0  0  0  0  0  0  0  0  0  0
    0.4402    4.0793    6.2119 O   0  0  0  0  0  0  0  0  0  0  0  0
    0.4665    3.2078    7.3120 C   0  0  0  0  0  0  0  0  0  0  0  0
    1.1172    1.9495    6.7432 C   0  0  0  0  0  0  0  0  0  0  0  0
    0.3968    0.8771    6.3283 C   0  0  0  0  0  0  0  0  0  0  0  0
    1.0729   -0.1928    5.7182 C   0  0  0  0  0  0  0  0  0  0  0  0
    2.4263   -0.1127    5.5679 C   0  0  0  0  0  0  0  0  0  0  0  0
    3.1521    1.0067    6.0099 C   0  0  0  0  0  0  0  0  0  0  0  0
    2.4921    2.0474    6.6037 C   0  0  0  0  0  0  0  0  0  0  0  0
    3.2367   -1.1088    4.9227 N   0  0  0  0  0  0  0  0  0  0  0  0
    3.3265   -0.9878    3.5198 C   0  0  0  0  0  0  0  0  0  0  0  0
    2.6392   -0.0113    3.0254 O   0  0  0  0  0  0  0  0  0  0  0  0
    4.0771   -1.7926    2.5808 C   0  0  1  0  0  0  0  0  0  0  0  0
    4.1040   -3.2468    2.7735 C   0  0  0  0  0  0  0  0  0  0  0  0
    2.8774   -4.0604    2.7607 C   0  0  0  0  0  0  0  0  0  0  0  0
    1.8799   -3.7727    3.8322 C   0  0  0  0  0  0  0  0  0  0  0  0
    0.7731   -4.7222    3.6943 N   0  0  0  0  0  0  0  0  0  0  0  0
   -0.3247   -4.7060    4.6105 C   0  0  0  0  0  0  0  0  0  0  0  0
   -0.2670   -3.8414    5.5219 O   0  0  0  0  0  0  0  0  0  0  0  0
   -1.3852   -5.6282    4.4515 N   0  0  0  0  0  0  0  0  0  0  0  0
    3.7931   -1.3565    1.2117 N   0  0  0  0  0  0  0  0  0  0  0  0
    4.7896   -0.8606    0.3702 C   0  0  0  0  0  0  0  0  0  0  0  0
    5.9924   -0.7880    0.8247 O   0  0  0  0  0  0  0  0  0  0  0  0
    4.6267   -0.3973   -1.0260 C   0  0  1  0  0  0  0  0  0  0  0  0
    5.4562   -1.2901   -1.9648 C   0  0  0  0  0  0  0  0  0  0  0  0
    6.9221   -1.2457   -1.5963 C   0  0  0  0  0  0  0  0  0  0  0  0
    5.3466   -0.8467   -3.3902 C   0  0  0  0  0  0  0  0  0  0  0  0
    3.2620   -0.4516   -1.5056 N   0  0  0  0  0  0  0  0  0  0  0  0
    2.8421    0.6262   -2.3495 C   0  0  0  0  0  0  0  0  0  0  0  0
    3.6103    1.5629   -2.6571 O   0  0  0  0  0  0  0  0  0  0  0  0
    1.4599    0.6787   -2.9120 C   0  0  0  0  0  0  0  0  0  0  0  0
    1.3580    1.7660   -3.9551 C   0  0  0  0  0  0  0  0  0  0  0  0
   -0.0438    1.7842   -4.5191 C   0  0  0  0  0  0  0  0  0  0  0  0
   -0.2176    2.8044   -5.6182 C   0  0  0  0  0  0  0  0  0  0  0  0
   -1.6148    2.7936   -6.1635 C   0  0  0  0  0  0  0  0  0  0  0  0
   -1.8263    3.7323   -7.2403 N   0  0  0  0  0  0  0  0  0  0  0  0
   -1.6433    3.4641   -8.6319 C   0  0  0  0  0  0  0  0  0  0  0  0
   -1.2788    2.3922   -9.1441 O   0  0  0  0  0  0  0  0  0  0  0  0
   -1.9861    4.7359   -9.3095 C   0  0  0  0  0  0  0  0  0  0  0  0
   -2.3289    5.6409   -8.4277 C   0  0  0  0  0  0  0  0  0  0  0  0
   -2.2577    5.0949   -7.0835 C   0  0  0  0  0  0  0  0  0  0  0  0
   -2.5283    5.7251   -6.0424 O   0  0  0  0  0  0  0  0  0  0  0  0
   -3.3913   -3.3454    1.7519 H   0  0  0  0  0  0  0  0  0  0  0  0
   -1.6683   -3.5505    2.3224 H   0  0  0  0  0  0  0  0  0  0  0  0
   -2.1368   -2.1546    1.3274 H   0  0  0  0  0  0  0  0  0  0  0  0
   -2.3823   -2.6694    4.2580 H   0  0  0  0  0  0  0  0  0  0  0  0
   -3.9850   -2.1620    3.5735 H   0  0  0  0  0  0  0  0  0  0  0  0
   -1.3391   -0.6596    3.5254 H   0  0  0  0  0  0  0  0  0  0  0  0
   -3.9472   -0.7474    5.1204 H   0  0  0  0  0  0  0  0  0  0  0  0
   -2.7359    0.6588    5.3038 H   0  0  0  0  0  0  0  0  0  0  0  0
   -2.2849   -1.0064    5.6110 H   0  0  0  0  0  0  0  0  0  0  0  0
   -2.7264   -0.2931    1.5245 H   0  0  0  0  0  0  0  0  0  0  0  0
   -4.7179    1.4158    2.9593 H   0  0  0  0  0  0  0  0  0  0  0  0
   -4.1503    1.8920    0.7350 H   0  0  0  0  0  0  0  0  0  0  0  0
   -5.8025    1.2663    0.8633 H   0  0  0  0  0  0  0  0  0  0  0  0
   -4.2553    2.0874   -1.7272 H   0  0  0  0  0  0  0  0  0  0  0  0
   -2.9182    1.1217   -2.4211 H   0  0  0  0  0  0  0  0  0  0  0  0
   -5.6789    1.6483   -3.6174 H   0  0  0  0  0  0  0  0  0  0  0  0
   -4.1430    1.1646   -4.3874 H   0  0  0  0  0  0  0  0  0  0  0  0
   -6.3881   -0.5120   -3.1943 H   0  0  0  0  0  0  0  0  0  0  0  0
   -5.1510   -0.9381   -4.4574 H   0  0  0  0  0  0  0  0  0  0  0  0
   -5.1572   -1.8940   -1.9457 H   0  0  0  0  0  0  0  0  0  0  0  0
   -2.5594   -1.1054   -3.4236 H   0  0  0  0  0  0  0  0  0  0  0  0
   -2.2745   -2.0670   -1.0444 H   0  0  0  0  0  0  0  0  0  0  0  0
   -2.8822   -4.2832   -0.6019 H   0  0  0  0  0  0  0  0  0  0  0  0
   -3.5060   -4.6140   -2.2307 H   0  0  0  0  0  0  0  0  0  0  0  0
   -4.3889   -3.5257   -1.1016 H   0  0  0  0  0  0  0  0  0  0  0  0
   -1.1639   -4.9839   -1.4075 H   0  0  0  0  0  0  0  0  0  0  0  0
    0.9854   -4.2147   -3.4470 H   0  0  0  0  0  0  0  0  0  0  0  0
   -0.6125   -5.9645   -4.1552 H   0  0  0  0  0  0  0  0  0  0  0  0
   -0.1485   -6.9665   -2.7317 H   0  0  0  0  0  0  0  0  0  0  0  0
    1.0827   -6.4470   -4.0285 H   0  0  0  0  0  0  0  0  0  0  0  0
    1.1609   -5.8208   -0.8741 H   0  0  0  0  0  0  0  0  0  0  0  0
    2.3651   -7.7765   -1.5889 H   0  0  0  0  0  0  0  0  0  0  0  0
    4.3377   -8.7962   -2.5661 H   0  0  0  0  0  0  0  0  0  0  0  0
    5.9710   -7.4589   -3.7969 H   0  0  0  0  0  0  0  0  0  0  0  0
    5.5971   -5.0463   -4.0384 H   0  0  0  0  0  0  0  0  0  0  0  0
    3.5663   -3.9562   -3.0387 H   0  0  0  0  0  0  0  0  0  0  0  0
    1.2149   -3.3054   -0.9752 H   0  0  0  0  0  0  0  0  0  0  0  0
   -2.2989   -2.9593   -5.2336 H   0  0  0  0  0  0  0  0  0  0  0  0
   -3.4639   -1.7351   -5.7140 H   0  0  0  0  0  0  0  0  0  0  0  0
   -3.8879   -3.5191   -5.7314 H   0  0  0  0  0  0  0  0  0  0  0  0
   -7.0118   -0.8057    3.7668 H   0  0  0  0  0  0  0  0  0  0  0  0
   -6.8179    0.8507    3.0019 H   0  0  0  0  0  0  0  0  0  0  0  0
   -5.8710    0.3881    4.4400 H   0  0  0  0  0  0  0  0  0  0  0  0
   -3.2745    2.3488    3.9555 H   0  0  0  0  0  0  0  0  0  0  0  0
   -2.2493    3.4710    3.1339 H   0  0  0  0  0  0  0  0  0  0  0  0
   -1.4334    2.3031    4.2037 H   0  0  0  0  0  0  0  0  0  0  0  0
    0.3846    2.4012    0.3155 H   0  0  0  0  0  0  0  0  0  0  0  0
   -1.1319    3.1288   -1.1330 H   0  0  0  0  0  0  0  0  0  0  0  0
    0.3786    4.6954   -1.5253 H   0  0  0  0  0  0  0  0  0  0  0  0
    0.8250    4.8199    0.1622 H   0  0  0  0  0  0  0  0  0  0  0  0
   -0.5636    5.8116   -0.5578 H   0  0  0  0  0  0  0  0  0  0  0  0
   -2.4213    5.4012   -0.0015 H   0  0  0  0  0  0  0  0  0  0  0  0
   -2.9565    3.9448    0.9563 H   0  0  0  0  0  0  0  0  0  0  0  0
   -3.1539    3.9917   -0.7852 H   0  0  0  0  0  0  0  0  0  0  0  0
    0.7407    2.8504    2.5649 H   0  0  0  0  0  0  0  0  0  0  0  0
    1.0094    4.1328    4.2742 H   0  0  0  0  0  0  0  0  0  0  0  0
    2.6459    5.8550    4.4024 H   0  0  0  0  0  0  0  0  0  0  0  0
    2.6168    7.7694    3.1850 H   0  0  0  0  0  0  0  0  0  0  0  0
    2.9331    6.7711    1.7742 H   0  0  0  0  0  0  0  0  0  0  0  0
    1.2580    7.2260    2.1644 H   0  0  0  0  0  0  0  0  0  0  0  0
    2.8337    4.5738    1.6471 H   0  0  0  0  0  0  0  0  0  0  0  0
    2.9062    3.6089    3.2203 H   0  0  0  0  0  0  0  0  0  0  0  0
    4.1248    4.8449    2.8426 H   0  0  0  0  0  0  0  0  0  0  0  0
   -0.8370    7.6509    5.4137 H   0  0  0  0  0  0  0  0  0  0  0  0
    0.5660    7.9985    4.4032 H   0  0  0  0  0  0  0  0  0  0  0  0
   -1.0222    7.4203    3.6788 H   0  0  0  0  0  0  0  0  0  0  0  0
   -0.5799    3.0034    7.6134 H   0  0  0  0  0  0  0  0  0  0  0  0
    1.1161    3.5634    8.1296 H   0  0  0  0  0  0  0  0  0  0  0  0
   -0.6706    0.8569    6.4687 H   0  0  0  0  0  0  0  0  0  0  0  0
    0.5444   -1.0650    5.3688 H   0  0  0  0  0  0  0  0  0  0  0  0
    4.2286    1.0681    5.8867 H   0  0  0  0  0  0  0  0  0  0  0  0
    3.0405    2.9147    6.9512 H   0  0  0  0  0  0  0  0  0  0  0  0
    3.7340   -1.8673    5.3950 H   0  0  0  0  0  0  0  0  0  0  0  0
    5.1874   -1.4731    2.7103 H   0  0  0  0  0  0  0  0  0  0  0  0
    4.5756   -3.4184    3.8071 H   0  0  0  0  0  0  0  0  0  0  0  0
    4.9146   -3.7223    2.1134 H   0  0  0  0  0  0  0  0  0  0  0  0
    3.1995   -5.1366    2.9194 H   0  0  0  0  0  0  0  0  0  0  0  0
    2.4057   -4.0904    1.7418 H   0  0  0  0  0  0  0  0  0  0  0  0
    2.3418   -3.9582    4.8156 H   0  0  0  0  0  0  0  0  0  0  0  0
    1.4009   -2.7752    3.7280 H   0  0  0  0  0  0  0  0  0  0  0  0
    0.7483   -5.4303    2.9260 H   0  0  0  0  0  0  0  0  0  0  0  0
   -1.1757   -6.6426    4.6112 H   0  0  0  0  0  0  0  0  0  0  0  0
   -2.3607   -5.3206    4.1758 H   0  0  0  0  0  0  0  0  0  0  0  0
    2.8136   -1.4069    0.8202 H   0  0  0  0  0  0  0  0  0  0  0  0
    5.0089    0.6195   -1.2166 H   0  0  0  0  0  0  0  0  0  0  0  0
    5.0674   -2.3146   -1.8432 H   0  0  0  0  0  0  0  0  0  0  0  0
    7.1434   -2.1036   -0.9104 H   0  0  0  0  0  0  0  0  0  0  0  0
    7.1352   -0.2711   -1.1409 H   0  0  0  0  0  0  0  0  0  0  0  0
    7.5407   -1.3219   -2.5131 H   0  0  0  0  0  0  0  0  0  0  0  0
    4.3686   -0.9738   -3.8468 H   0  0  0  0  0  0  0  0  0  0  0  0
    5.7848    0.1864   -3.5168 H   0  0  0  0  0  0  0  0  0  0  0  0
    6.0678   -1.4874   -3.9720 H   0  0  0  0  0  0  0  0  0  0  0  0
    2.6153   -1.2192   -1.2597 H   0  0  0  0  0  0  0  0  0  0  0  0
    0.8068    0.9871   -2.0714 H   0  0  0  0  0  0  0  0  0  0  0  0
    1.0959   -0.2596   -3.3155 H   0  0  0  0  0  0  0  0  0  0  0  0
    1.6076    2.7519   -3.5119 H   0  0  0  0  0  0  0  0  0  0  0  0
    2.0669    1.5307   -4.7682 H   0  0  0  0  0  0  0  0  0  0  0  0
   -0.7960    2.0503   -3.7361 H   0  0  0  0  0  0  0  0  0  0  0  0
   -0.3364    0.7891   -4.8890 H   0  0  0  0  0  0  0  0  0  0  0  0
    0.4473    2.4690   -6.4647 H   0  0  0  0  0  0  0  0  0  0  0  0
    0.0557    3.8194   -5.3128 H   0  0  0  0  0  0  0  0  0  0  0  0
   -1.8902    1.7766   -6.5606 H   0  0  0  0  0  0  0  0  0  0  0  0
   -2.3492    3.0445   -5.3647 H   0  0  0  0  0  0  0  0  0  0  0  0
   -1.9249    4.7952  -10.4003 H   0  0  0  0  0  0  0  0  0  0  0  0
   -2.6243    6.6562   -8.7350 H   0  0  0  0  0  0  0  0  0  0  0  0
  1  2  1  0
  2  3  1  0
  3  4  1  0
  3  5  1  0
  5  6  1  0
  6  7  1  0
  7  8  1  0
  8  9  2  0
  8 10  1  0
 10 11  1  0
 11 12  1  0
 12 13  1  0
 13 14  1  0
 14 15  1  0
 15 16  1  0
 16 17  1  0
 16 18  1  0
 18 19  2  0
 18 20  1  0
 20 21  1  0
 21 22  1  0
 21 23  1  0
 23 24  1  0
 24 25  2  0
 25 26  1  0
 26 27  2  0
 27 28  1  0
 28 29  2  0
 23 30  1  0
 15 31  1  0
 31 32  1  0
  6 33  1  0
 33 34  1  0
  5 35  1  0
 35 36  1  0
 35 37  1  0
 37 38  2  0
 37 39  1  0
 39 40  1  0
 40 41  1  0
 40 42  1  0
 39 43  1  0
 43 44  1  0
 44 45  2  0
 44 46  1  0
 46 47  1  0
 47 48  1  0
 47 49  1  0
 46 50  1  0
 50 51  1  0
 50 52  1  0
 52 53  2  0
 52 54  1  0
 54 55  1  0
 55 56  1  0
 56 57  1  0
 57 58  2  0
 58 59  1  0
 59 60  2  0
 60 61  1  0
 59 62  1  0
 62 63  1  0
 63 64  2  0
 63 65  1  0
 65 66  1  0
 66 67  1  0
 67 68  1  0
 68 69  1  0
 69 70  1  0
 70 71  2  0
 70 72  1  0
 65 73  1  0
 73 74  1  0
 74 75  2  0
 74 76  1  0
 76 77  1  0
 77 78  1  0
 77 79  1  0
 76 80  1  0
 80 81  1  0
 81 82  2  0
 81 83  1  0
 83 84  1  0
 84 85  1  0
 85 86  1  0
 86 87  1  0
 87 88  1  0
 88 89  1  0
 89 90  2  0
 89 91  1  0
 91 92  2  0
 92 93  1  0
 93 94  2  0
 14 10  1  0
 29 24  1  0
 61 56  2  0
 93 88  1  0
  1 95  1  0
  1 96  1  0
  1 97  1  0
  2 98  1  0
  2 99  1  0
  3100  1  1
  4101  1  0
  4102  1  0
  4103  1  0
  5104  1  6
  6105  1  1
  7106  1  0
  7107  1  0
 11108  1  0
 11109  1  0
 12110  1  0
 12111  1  0
 13112  1  0
 13113  1  0
 14114  1  1
 15115  1  6
 16116  1  1
 17117  1  0
 17118  1  0
 17119  1  0
 20120  1  0
 21121  1  6
 22122  1  0
 22123  1  0
 22124  1  0
 23125  1  1
 25126  1  0
 26127  1  0
 27128  1  0
 28129  1  0
 29130  1  0
 30131  1  0
 32132  1  0
 32133  1  0
 32134  1  0
 34135  1  0
 34136  1  0
 34137  1  0
 36138  1  0
 36139  1  0
 36140  1  0
 39141  1  6
 40142  1  0
 41143  1  0
 41144  1  0
 41145  1  0
 42146  1  0
 42147  1  0
 42148  1  0
 43149  1  0
 46150  1  1
 47151  1  0
 48152  1  0
 48153  1  0
 48154  1  0
 49155  1  0
 49156  1  0
 49157  1  0
 51158  1  0
 51159  1  0
 51160  1  0
 55161  1  0
 55162  1  0
 57163  1  0
 58164  1  0
 60165  1  0
 61166  1  0
 62167  1  0
 65168  1  1
 66169  1  0
 66170  1  0
 67171  1  0
 67172  1  0
 68173  1  0
 68174  1  0
 69175  1  0
 72176  1  0
 72177  1  0
 73178  1  0
 76179  1  1
 77180  1  0
 78181  1  0
 78182  1  0
 78183  1  0
 79184  1  0
 79185  1  0
 79186  1  0
 80187  1  0
 83188  1  0
 83189  1  0
 84190  1  0
 84191  1  0
 85192  1  0
 85193  1  0
 86194  1  0
 86195  1  0
 87196  1  0
 87197  1  0
 91198  1  0
 92199  1  0
M  END
$$$$

     RDKit          3D

199202  0  0  0  0  0  0  0  0999 V2000
   -1.1669    0.8013    2.7688 C   0  0  0  0  0  0  0  0  0  0  0  0
   -1.8740    0.7766    1.3890 C   0  0  0  0  0  0  0  0  0  0  0  0
   -3.3412    0.9181    1.6744 C   0  0  2  0  0  0  0  0  0  0  0  0
   -3.7471   -0.2771    2.4914 C   0  0  0  0  0  0  0  0  0  0  0  0
   -4.2217    1.3831    0.6079 C   0  0  1  0  0  0  0  0  0  0  0  0
   -4.3229    0.5697   -0.6703 C   0  0  1  0  0  0  0  0  0  0  0  0
   -3.1148    0.5983   -1.5335 C   0  0  0  0  0  0  0  0  0  0  0  0
   -3.1545   -0.2159   -2.7721 C   0  0  0  0  0  0  0  0  0  0  0  0
   -4.0572   -0.9536   -3.1681 O   0  0  0  0  0  0  0  0  0  0  0  0
   -1.9873   -0.1238   -3.6075 N   0  0  0  0  0  0  0  0  0  0  0  0
   -0.7817    0.6885   -3.3361 C   0  0  0  0  0  0  0  0  0  0  0  0
   -0.7130    1.4506   -4.6541 C   0  0  0  0  0  0  0  0  0  0  0  0
   -0.9702    0.3113   -5.6546 C   0  0  0  0  0  0  0  0  0  0  0  0
   -1.7002   -0.7453   -4.8788 C   0  0  1  0  0  0  0  0  0  0  0  0
   -0.7934   -1.9645   -4.7180 C   0  0  1  0  0  0  0  0  0  0  0  0
   -1.4937   -3.0123   -3.8539 C   0  0  1  0  0  0  0  0  0  0  0  0
   -2.7498   -3.5512   -4.4294 C   0  0  0  0  0  0  0  0  0  0  0  0
   -0.5858   -4.0969   -3.4658 C   0  0  0  0  0  0  0  0  0  0  0  0
    0.6833   -4.0090   -3.4848 O   0  0  0  0  0  0  0  0  0  0  0  0
   -1.0860   -5.3670   -3.0312 N   0  0  0  0  0  0  0  0  0  0  0  0
   -0.1998   -6.4352   -2.6589 C   0  0  2  0  0  0  0  0  0  0  0  0
    0.0863   -7.3301   -3.8782 C   0  0  0  0  0  0  0  0  0  0  0  0
   -0.6544   -7.2956   -1.5308 C   0  0  1  0  0  0  0  0  0  0  0  0
   -0.8061   -6.4964   -0.3003 C   0  0  0  0  0  0  0  0  0  0  0  0
   -0.2564   -5.2733   -0.0668 C   0  0  0  0  0  0  0  0  0  0  0  0
   -0.4861   -4.6407    1.1404 C   0  0  0  0  0  0  0  0  0  0  0  0
   -1.2674   -5.2153    2.1367 C   0  0  0  0  0  0  0  0  0  0  0  0
   -1.8250   -6.4498    1.9059 C   0  0  0  0  0  0  0  0  0  0  0  0
   -1.5901   -7.0634    0.7085 C   0  0  0  0  0  0  0  0  0  0  0  0
   -1.8756   -7.8820   -1.8909 O   0  0  0  0  0  0  0  0  0  0  0  0
   -0.5194   -2.5094   -5.9633 O   0  0  0  0  0  0  0  0  0  0  0  0
    0.7363   -2.6433   -6.4046 C   0  0  0  0  0  0  0  0  0  0  0  0
   -4.9818   -0.5911   -0.6700 O   0  0  0  0  0  0  0  0  0  0  0  0
   -6.2102   -0.6956   -1.2517 C   0  0  0  0  0  0  0  0  0  0  0  0
   -5.5347    1.8110    1.0431 N   0  0  0  0  0  0  0  0  0  0  0  0
   -6.3961    0.8350    1.7138 C   0  0  0  0  0  0  0  0  0  0  0  0
   -6.0632    3.1180    0.9446 C   0  0  0  0  0  0  0  0  0  0  0  0
   -7.3430    3.1636    1.2332 O   0  0  0  0  0  0  0  0  0  0  0  0
   -5.5035    4.3871    0.5994 C   0  0  1  0  0  0  0  0  0  0  0  0
   -6.4017    5.5660    1.0784 C   0  0  0  0  0  0  0  0  0  0  0  0
   -6.5572    5.5326    2.5616 C   0  0  0  0  0  0  0  0  0  0  0  0
   -7.7100    5.5490    0.3313 C   0  0  0  0  0  0  0  0  0  0  0  0
   -4.1587    4.7570    0.7855 N   0  0  0  0  0  0  0  0  0  0  0  0
   -3.1422    5.0003   -0.1648 C   0  0  0  0  0  0  0  0  0  0  0  0
   -3.4367    4.8290   -1.3761 O   0  0  0  0  0  0  0  0  0  0  0  0
   -1.8132    5.4372    0.3109 C   0  0  1  0  0  0  0  0  0  0  0  0
   -0.9346    6.0053   -0.7533 C   0  0  0  0  0  0  0  0  0  0  0  0
   -1.4539    7.2002   -1.4780 C   0  0  0  0  0  0  0  0  0  0  0  0
   -0.4680    4.9839   -1.7739 C   0  0  0  0  0  0  0  0  0  0  0  0
   -1.8914    6.3243    1.4401 N   0  0  0  0  0  0  0  0  0  0  0  0
   -2.6863    7.5398    1.2380 C   0  0  0  0  0  0  0  0  0  0  0  0
   -1.3181    6.1549    2.7109 C   0  0  0  0  0  0  0  0  0  0  0  0
   -1.5408    7.0564    3.5993 O   0  0  0  0  0  0  0  0  0  0  0  0
   -0.5244    5.1219    3.1435 O   0  0  0  0  0  0  0  0  0  0  0  0
   -0.0412    5.1638    4.5046 C   0  0  0  0  0  0  0  0  0  0  0  0
    0.8067    3.9332    4.6739 C   0  0  0  0  0  0  0  0  0  0  0  0
    0.2907    2.7508    5.1032 C   0  0  0  0  0  0  0  0  0  0  0  0
    1.1259    1.6572    5.1542 C   0  0  0  0  0  0  0  0  0  0  0  0
    2.4669    1.7916    4.7674 C   0  0  0  0  0  0  0  0  0  0  0  0
    2.9958    2.9667    4.3419 C   0  0  0  0  0  0  0  0  0  0  0  0
    2.1435    4.0631    4.2944 C   0  0  0  0  0  0  0  0  0  0  0  0
    3.1863    0.5381    4.7413 N   0  0  0  0  0  0  0  0  0  0  0  0
    3.3049   -0.0045    3.4295 C   0  0  0  0  0  0  0  0  0  0  0  0
    2.7915    0.7019    2.4990 O   0  0  0  0  0  0  0  0  0  0  0  0
    3.9419   -1.2587    3.0446 C   0  0  1  0  0  0  0  0  0  0  0  0
    3.0226   -2.4570    3.2790 C   0  0  0  0  0  0  0  0  0  0  0  0
    2.6519   -2.5543    4.7197 C   0  0  0  0  0  0  0  0  0  0  0  0
    1.7165   -3.7440    4.9446 C   0  0  0  0  0  0  0  0  0  0  0  0
    2.3020   -4.9886    4.5535 N   0  0  0  0  0  0  0  0  0  0  0  0
    3.4790   -5.5480    5.0841 C   0  0  0  0  0  0  0  0  0  0  0  0
    4.0909   -4.9283    5.9739 O   0  0  0  0  0  0  0  0  0  0  0  0
    3.9172   -6.8184    4.5653 N   0  0  0  0  0  0  0  0  0  0  0  0
    4.1143   -1.1348    1.5655 N   0  0  0  0  0  0  0  0  0  0  0  0
    5.3385   -1.4974    0.9475 C   0  0  0  0  0  0  0  0  0  0  0  0
    6.2657   -1.9402    1.6787 O   0  0  0  0  0  0  0  0  0  0  0  0
    5.4842   -1.3445   -0.5232 C   0  0  1  0  0  0  0  0  0  0  0  0
    5.6154   -2.7365   -1.1475 C   0  0  0  0  0  0  0  0  0  0  0  0
    6.8158   -3.4501   -0.6044 C   0  0  0  0  0  0  0  0  0  0  0  0
    5.8798   -2.4550   -2.6362 C   0  0  0  0  0  0  0  0  0  0  0  0
    4.3550   -0.6771   -1.1420 N   0  0  0  0  0  0  0  0  0  0  0  0
    4.6645    0.4188   -2.0298 C   0  0  0  0  0  0  0  0  0  0  0  0
    5.8676    0.6932   -2.2012 O   0  0  0  0  0  0  0  0  0  0  0  0
    3.5239    1.1088   -2.6456 C   0  0  0  0  0  0  0  0  0  0  0  0
    3.8661    2.2564   -3.5315 C   0  0  0  0  0  0  0  0  0  0  0  0
    4.6098    3.3223   -2.7850 C   0  0  0  0  0  0  0  0  0  0  0  0
    3.7889    3.8404   -1.6558 C   0  0  0  0  0  0  0  0  0  0  0  0
    4.5533    4.9378   -0.9436 C   0  0  0  0  0  0  0  0  0  0  0  0
    5.8012    4.4211   -0.4564 N   0  0  0  0  0  0  0  0  0  0  0  0
    7.0812    4.4279   -1.1153 C   0  0  0  0  0  0  0  0  0  0  0  0
    7.3703    4.8986   -2.2501 O   0  0  0  0  0  0  0  0  0  0  0  0
    8.0307    3.7809   -0.2327 C   0  0  0  0  0  0  0  0  0  0  0  0
    7.4569    3.3842    0.8900 C   0  0  0  0  0  0  0  0  0  0  0  0
    6.0575    3.7695    0.7857 C   0  0  0  0  0  0  0  0  0  0  0  0
    5.1429    3.5870    1.6339 O   0  0  0  0  0  0  0  0  0  0  0  0
   -0.9583   -0.2244    3.0821 H   0  0  0  0  0  0  0  0  0  0  0  0
   -0.2407    1.4113    2.6735 H   0  0  0  0  0  0  0  0  0  0  0  0
   -1.8085    1.2803    3.5202 H   0  0  0  0  0  0  0  0  0  0  0  0
   -1.6209   -0.2234    0.9603 H   0  0  0  0  0  0  0  0  0  0  0  0
   -1.5185    1.6458    0.8526 H   0  0  0  0  0  0  0  0  0  0  0  0
   -3.3295    1.7890    2.4487 H   0  0  0  0  0  0  0  0  0  0  0  0
   -4.5424    0.0310    3.1933 H   0  0  0  0  0  0  0  0  0  0  0  0
   -4.1083   -1.1401    1.9184 H   0  0  0  0  0  0  0  0  0  0  0  0
   -2.9089   -0.5859    3.1938 H   0  0  0  0  0  0  0  0  0  0  0  0
   -3.7637    2.3520    0.2223 H   0  0  0  0  0  0  0  0  0  0  0  0
   -5.0747    1.2558   -1.3029 H   0  0  0  0  0  0  0  0  0  0  0  0
   -2.1785    0.4409   -0.9937 H   0  0  0  0  0  0  0  0  0  0  0  0
   -2.9619    1.6856   -1.9302 H   0  0  0  0  0  0  0  0  0  0  0  0
   -0.9614    1.3716   -2.4918 H   0  0  0  0  0  0  0  0  0  0  0  0
    0.0789    0.0486   -3.1838 H   0  0  0  0  0  0  0  0  0  0  0  0
    0.2565    1.9307   -4.8199 H   0  0  0  0  0  0  0  0  0  0  0  0
   -1.5853    2.1186   -4.6864 H   0  0  0  0  0  0  0  0  0  0  0  0
    0.0307    0.0188   -5.9980 H   0  0  0  0  0  0  0  0  0  0  0  0
   -1.5823    0.7541   -6.4678 H   0  0  0  0  0  0  0  0  0  0  0  0
   -2.6871   -0.9986   -5.3200 H   0  0  0  0  0  0  0  0  0  0  0  0
    0.1166   -1.6692   -4.2304 H   0  0  0  0  0  0  0  0  0  0  0  0
   -1.7813   -2.5007   -2.8781 H   0  0  0  0  0  0  0  0  0  0  0  0
   -2.5735   -4.5313   -4.9661 H   0  0  0  0  0  0  0  0  0  0  0  0
   -3.3667   -2.8718   -5.0198 H   0  0  0  0  0  0  0  0  0  0  0  0
   -3.4153   -3.8716   -3.5720 H   0  0  0  0  0  0  0  0  0  0  0  0
   -2.1195   -5.5055   -2.9836 H   0  0  0  0  0  0  0  0  0  0  0  0
    0.7907   -6.0004   -2.4265 H   0  0  0  0  0  0  0  0  0  0  0  0
    0.5553   -8.2496   -3.4301 H   0  0  0  0  0  0  0  0  0  0  0  0
    0.8650   -6.8595   -4.4903 H   0  0  0  0  0  0  0  0  0  0  0  0
   -0.8203   -7.6496   -4.3911 H   0  0  0  0  0  0  0  0  0  0  0  0
    0.1296   -8.0956   -1.3844 H   0  0  0  0  0  0  0  0  0  0  0  0
    0.3470   -4.8273   -0.8278 H   0  0  0  0  0  0  0  0  0  0  0  0
   -0.0670   -3.6639    1.3689 H   0  0  0  0  0  0  0  0  0  0  0  0
   -1.4462   -4.7346    3.0732 H   0  0  0  0  0  0  0  0  0  0  0  0
   -2.4501   -6.9502    2.6541 H   0  0  0  0  0  0  0  0  0  0  0  0
   -2.0499   -8.0413    0.5592 H   0  0  0  0  0  0  0  0  0  0  0  0
   -1.7392   -8.8466   -1.9280 H   0  0  0  0  0  0  0  0  0  0  0  0
    1.3834   -1.7491   -6.4928 H   0  0  0  0  0  0  0  0  0  0  0  0
    0.6576   -3.0437   -7.4882 H   0  0  0  0  0  0  0  0  0  0  0  0
    1.3760   -3.4194   -5.9398 H   0  0  0  0  0  0  0  0  0  0  0  0
   -6.3176   -0.4247   -2.3012 H   0  0  0  0  0  0  0  0  0  0  0  0
   -6.4260   -1.8288   -1.2662 H   0  0  0  0  0  0  0  0  0  0  0  0
   -7.0825   -0.3195   -0.6787 H   0  0  0  0  0  0  0  0  0  0  0  0
   -7.4286    1.0001    1.2567 H   0  0  0  0  0  0  0  0  0  0  0  0
   -6.1906   -0.1991    1.5251 H   0  0  0  0  0  0  0  0  0  0  0  0
   -6.5625    1.1354    2.7770 H   0  0  0  0  0  0  0  0  0  0  0  0
   -5.6648    4.4915   -0.5454 H   0  0  0  0  0  0  0  0  0  0  0  0
   -5.8484    6.4743    0.7965 H   0  0  0  0  0  0  0  0  0  0  0  0
   -7.5296    5.0753    2.7900 H   0  0  0  0  0  0  0  0  0  0  0  0
   -6.5533    6.5580    2.9464 H   0  0  0  0  0  0  0  0  0  0  0  0
   -5.6917    4.9730    2.9736 H   0  0  0  0  0  0  0  0  0  0  0  0
   -8.5468    5.2174    0.9967 H   0  0  0  0  0  0  0  0  0  0  0  0
   -7.6308    4.9420   -0.5709 H   0  0  0  0  0  0  0  0  0  0  0  0
   -7.9445    6.5904    0.0357 H   0  0  0  0  0  0  0  0  0  0  0  0
   -3.8418    4.8724    1.8132 H   0  0  0  0  0  0  0  0  0  0  0  0
   -1.2590    4.5244    0.6777 H   0  0  0  0  0  0  0  0  0  0  0  0
    0.0065    6.3424   -0.2253 H   0  0  0  0  0  0  0  0  0  0  0  0
   -0.8374    7.3278   -2.4247 H   0  0  0  0  0  0  0  0  0  0  0  0
   -1.3088    8.1640   -0.9531 H   0  0  0  0  0  0  0  0  0  0  0  0
   -2.4899    7.0704   -1.8843 H   0  0  0  0  0  0  0  0  0  0  0  0
   -1.3053    4.3591   -2.1282 H   0  0  0  0  0  0  0  0  0  0  0  0
    0.3152    4.3019   -1.3847 H   0  0  0  0  0  0  0  0  0  0  0  0
   -0.0788    5.5195   -2.6683 H   0  0  0  0  0  0  0  0  0  0  0  0
   -2.0224    8.4169    1.3051 H   0  0  0  0  0  0  0  0  0  0  0  0
   -3.3443    7.5961    2.1413 H   0  0  0  0  0  0  0  0  0  0  0  0
   -3.2403    7.5679    0.3106 H   0  0  0  0  0  0  0  0  0  0  0  0
   -0.9181    5.1648    5.1473 H   0  0  0  0  0  0  0  0  0  0  0  0
    0.5983    6.0682    4.5602 H   0  0  0  0  0  0  0  0  0  0  0  0
   -0.7421    2.6915    5.3939 H   0  0  0  0  0  0  0  0  0  0  0  0
    0.7149    0.7239    5.4973 H   0  0  0  0  0  0  0  0  0  0  0  0
    4.0345    3.0069    4.0651 H   0  0  0  0  0  0  0  0  0  0  0  0
    2.5487    5.0006    3.9551 H   0  0  0  0  0  0  0  0  0  0  0  0
    3.5871    0.0705    5.5607 H   0  0  0  0  0  0  0  0  0  0  0  0
    4.8703   -1.4281    3.5666 H   0  0  0  0  0  0  0  0  0  0  0  0
    3.6760   -3.3499    3.0576 H   0  0  0  0  0  0  0  0  0  0  0  0
    2.1863   -2.5113    2.5885 H   0  0  0  0  0  0  0  0  0  0  0  0
    3.5282   -2.6008    5.3927 H   0  0  0  0  0  0  0  0  0  0  0  0
    2.0759   -1.6415    4.9963 H   0  0  0  0  0  0  0  0  0  0  0  0
    0.8024   -3.5139    4.3750 H   0  0  0  0  0  0  0  0  0  0  0  0
    1.4302   -3.7359    6.0022 H   0  0  0  0  0  0  0  0  0  0  0  0
    1.7999   -5.5329    3.7928 H   0  0  0  0  0  0  0  0  0  0  0  0
    4.5299   -6.8421    3.7087 H   0  0  0  0  0  0  0  0  0  0  0  0
    3.5942   -7.6583    5.0740 H   0  0  0  0  0  0  0  0  0  0  0  0
    3.2815   -0.7727    1.0531 H   0  0  0  0  0  0  0  0  0  0  0  0
    6.4330   -0.8396   -0.7845 H   0  0  0  0  0  0  0  0  0  0  0  0
    4.6689   -3.2626   -1.0219 H   0  0  0  0  0  0  0  0  0  0  0  0
    7.4018   -3.9235   -1.4484 H   0  0  0  0  0  0  0  0  0  0  0  0
    7.5547   -2.7900   -0.1058 H   0  0  0  0  0  0  0  0  0  0  0  0
    6.5331   -4.3144    0.0340 H   0  0  0  0  0  0  0  0  0  0  0  0
    6.8107   -1.8726   -2.7424 H   0  0  0  0  0  0  0  0  0  0  0  0
    6.0189   -3.4168   -3.1455 H   0  0  0  0  0  0  0  0  0  0  0  0
    5.0372   -1.8608   -3.0472 H   0  0  0  0  0  0  0  0  0  0  0  0
    3.3773   -0.9713   -0.9564 H   0  0  0  0  0  0  0  0  0  0  0  0
    2.8722    0.3623   -3.1754 H   0  0  0  0  0  0  0  0  0  0  0  0
    2.8504    1.4866   -1.8277 H   0  0  0  0  0  0  0  0  0  0  0  0
    4.4331    1.9253   -4.4492 H   0  0  0  0  0  0  0  0  0  0  0  0
    2.8814    2.6584   -3.9135 H   0  0  0  0  0  0  0  0  0  0  0  0
    5.5508    2.9187   -2.3290 H   0  0  0  0  0  0  0  0  0  0  0  0
    4.8842    4.1266   -3.5118 H   0  0  0  0  0  0  0  0  0  0  0  0
    3.5596    3.0780   -0.8859 H   0  0  0  0  0  0  0  0  0  0  0  0
    2.8178    4.2647   -1.9911 H   0  0  0  0  0  0  0  0  0  0  0  0
    4.7809    5.7471   -1.6839 H   0  0  0  0  0  0  0  0  0  0  0  0
    3.9020    5.3084   -0.1252 H   0  0  0  0  0  0  0  0  0  0  0  0
    9.0672    3.6331   -0.4450 H   0  0  0  0  0  0  0  0  0  0  0  0
    7.9493    2.8834    1.6949 H   0  0  0  0  0  0  0  0  0  0  0  0
  1  2  1  0
  2  3  1  0
  3  4  1  0
  3  5  1  0
  5  6  1  0
  6  7  1  0
  7  8  1  0
  8  9  2  0
  8 10  1  0
 10 11  1  0
 11 12  1  0
 12 13  1  0
 13 14  1  0
 14 15  1  0
 15 16  1  0
 16 17  1  0
 16 18  1  0
 18 19  2  0
 18 20  1  0
 20 21  1  0
 21 22  1  0
 21 23  1  0
 23 24  1  0
 24 25  2  0
 25 26  1  0
 26 27  2  0
 27 28  1  0
 28 29  2  0
 23 30  1  0
 15 31  1  0
 31 32  1  0
  6 33  1  0
 33 34  1  0
  5 35  1  0
 35 36  1  0
 35 37  1  0
 37 38  2  0
 37 39  1  0
 39 40  1  0
 40 41  1  0
 40 42  1  0
 39 43  1  0
 43 44  1  0
 44 45  2  0
 44 46  1  0
 46 47  1  0
 47 48  1  0
 47 49  1  0
 46 50  1  0
 50 51  1  0
 50 52  1  0
 52 53  2  0
 52 54  1  0
 54 55  1  0
 55 56  1  0
 56 57  1  0
 57 58  2  0
 58 59  1  0
 59 60  2  0
 60 61  1  0
 59 62  1  0
 62 63  1  0
 63 64  2  0
 63 65  1  0
 65 66  1  0
 66 67  1  0
 67 68  1  0
 68 69  1  0
 69 70  1  0
 70 71  2  0
 70 72  1  0
 65 73  1  0
 73 74  1  0
 74 75  2  0
 74 76  1  0
 76 77  1  0
 77 78  1  0
 77 79  1  0
 76 80  1  0
 80 81  1  0
 81 82  2  0
 81 83  1  0
 83 84  1  0
 84 85  1  0
 85 86  1  0
 86 87  1  0
 87 88  1  0
 88 89  1  0
 89 90  2  0
 89 91  1  0
 91 92  2  0
 92 93  1  0
 93 94  2  0
 14 10  1  0
 29 24  1  0
 61 56  2  0
 93 88  1  0
  1 95  1  0
  1 96  1  0
  1 97  1  0
  2 98  1  0
  2 99  1  0
  3100  1  1
  4101  1  0
  4102  1  0
  4103  1  0
  5104  1  6
  6105  1  6
  7106  1  0
  7107  1  0
 11108  1  0
 11109  1  0
 12110  1  0
 12111  1  0
 13112  1  0
 13113  1  0
 14114  1  6
 15115  1  1
 16116  1  1
 17117  1  0
 17118  1  0
 17119  1  0
 20120  1  0
 21121  1  1
 22122  1  0
 22123  1  0
 22124  1  0
 23125  1  1
 25126  1  0
 26127  1  0
 27128  1  0
 28129  1  0
 29130  1  0
 30131  1  0
 32132  1  0
 32133  1  0
 32134  1  0
 34135  1  0
 34136  1  0
 34137  1  0
 36138  1  0
 36139  1  0
 36140  1  0
 39141  1  6
 40142  1  0
 41143  1  0
 41144  1  0
 41145  1  0
 42146  1  0
 42147  1  0
 42148  1  0
 43149  1  0
 46150  1  1
 47151  1  0
 48152  1  0
 48153  1  0
 48154  1  0
 49155  1  0
 49156  1  0
 49157  1  0
 51158  1  0
 51159  1  0
 51160  1  0
 55161  1  0
 55162  1  0
 57163  1  0
 58164  1  0
 60165  1  0
 61166  1  0
 62167  1  0
 65168  1  1
 66169  1  0
 66170  1  0
 67171  1  0
 67172  1  0
 68173  1  0
 68174  1  0
 69175  1  0
 72176  1  0
 72177  1  0
 73178  1  0
 76179  1  1
 77180  1  0
 78181  1  0
 78182  1  0
 78183  1  0
 79184  1  0
 79185  1  0
 79186  1  0
 80187  1  0
 83188  1  0
 83189  1  0
 84190  1  0
 84191  1  0
 85192  1  0
 85193  1  0
 86194  1  0
 86195  1  0
 87196  1  0
 87197  1  0
 91198  1  0
 92199  1  0
M  END
$$$$

     RDKit          3D

199202  0  0  0  0  0  0  0  0999 V2000
   -2.2388   -5.0882   -0.1356 C   0  0  0  0  0  0  0  0  0  0  0  0
   -1.1895   -4.0892   -0.6295 C   0  0  0  0  0  0  0  0  0  0  0  0
   -0.0037   -4.0653    0.3042 C   0  0  2  0  0  0  0  0  0  0  0  0
   -0.4817   -3.6476    1.6689 C   0  0  0  0  0  0  0  0  0  0  0  0
    1.2212   -3.4290   -0.2042 C   0  0  1  0  0  0  0  0  0  0  0  0
    1.2897   -2.0186   -0.5718 C   0  0  1  0  0  0  0  0  0  0  0  0
    0.2544   -1.3726   -1.4124 C   0  0  0  0  0  0  0  0  0  0  0  0
    0.0502   -1.9198   -2.7445 C   0  0  0  0  0  0  0  0  0  0  0  0
    0.6109   -2.9877   -3.1762 O   0  0  0  0  0  0  0  0  0  0  0  0
   -0.8116   -1.2916   -3.7025 N   0  0  0  0  0  0  0  0  0  0  0  0
   -1.0891   -1.7843   -5.0595 C   0  0  0  0  0  0  0  0  0  0  0  0
   -1.0554   -0.4893   -5.8373 C   0  0  0  0  0  0  0  0  0  0  0  0
   -0.8265    0.6159   -4.8291 C   0  0  0  0  0  0  0  0  0  0  0  0
   -1.5430   -0.0428   -3.6229 C   0  0  1  0  0  0  0  0  0  0  0  0
   -2.9540    0.0313   -3.9186 C   0  0  1  0  0  0  0  0  0  0  0  0
   -3.9559   -0.6799   -3.0612 C   0  0  1  0  0  0  0  0  0  0  0  0
   -3.7552   -2.1640   -3.0252 C   0  0  0  0  0  0  0  0  0  0  0  0
   -4.1222   -0.1847   -1.6937 C   0  0  0  0  0  0  0  0  0  0  0  0
   -3.8512   -0.9125   -0.7105 O   0  0  0  0  0  0  0  0  0  0  0  0
   -4.5903    1.1263   -1.4198 N   0  0  0  0  0  0  0  0  0  0  0  0
   -4.7704    1.6559   -0.0832 C   0  0  2  0  0  0  0  0  0  0  0  0
   -6.2199    2.0673    0.0368 C   0  0  0  0  0  0  0  0  0  0  0  0
   -3.8084    2.7547    0.2335 C   0  0  1  0  0  0  0  0  0  0  0  0
   -3.9532    3.1411    1.6528 C   0  0  0  0  0  0  0  0  0  0  0  0
   -4.4191    4.4206    1.9917 C   0  0  0  0  0  0  0  0  0  0  0  0
   -4.5378    4.8073    3.3130 C   0  0  0  0  0  0  0  0  0  0  0  0
   -4.2087    3.9648    4.3511 C   0  0  0  0  0  0  0  0  0  0  0  0
   -3.7443    2.6863    4.0239 C   0  0  0  0  0  0  0  0  0  0  0  0
   -3.6253    2.3020    2.7064 C   0  0  0  0  0  0  0  0  0  0  0  0
   -2.5220    2.1684    0.1204 O   0  0  0  0  0  0  0  0  0  0  0  0
   -3.3128    1.4181   -3.7966 O   0  0  0  0  0  0  0  0  0  0  0  0
   -3.9726    1.8525   -4.9308 C   0  0  0  0  0  0  0  0  0  0  0  0
    1.5591   -1.1262    0.5084 O   0  0  0  0  0  0  0  0  0  0  0  0
    2.7926   -0.5055    0.2873 C   0  0  0  0  0  0  0  0  0  0  0  0
    2.4229   -3.9781    0.4387 N   0  0  0  0  0  0  0  0  0  0  0  0
    2.5176   -3.6344    1.8826 C   0  0  0  0  0  0  0  0  0  0  0  0
    3.4165   -4.7612   -0.0904 C   0  0  0  0  0  0  0  0  0  0  0  0
    4.2673   -5.2337    0.8298 O   0  0  0  0  0  0  0  0  0  0  0  0
    3.7741   -5.2149   -1.4240 C   0  0  1  0  0  0  0  0  0  0  0  0
    2.9341   -6.4078   -1.8708 C   0  0  0  0  0  0  0  0  0  0  0  0
    3.4058   -6.7756   -3.2533 C   0  0  0  0  0  0  0  0  0  0  0  0
    3.2249   -7.5501   -0.9541 C   0  0  0  0  0  0  0  0  0  0  0  0
    3.7325   -4.1508   -2.3850 N   0  0  0  0  0  0  0  0  0  0  0  0
    4.9801   -3.8169   -3.0237 C   0  0  0  0  0  0  0  0  0  0  0  0
    6.0515   -4.4690   -2.7082 O   0  0  0  0  0  0  0  0  0  0  0  0
    5.1834   -2.7744   -4.0405 C   0  0  1  0  0  0  0  0  0  0  0  0
    6.1189   -3.3110   -5.0888 C   0  0  0  0  0  0  0  0  0  0  0  0
    6.4011   -2.3148   -6.1957 C   0  0  0  0  0  0  0  0  0  0  0  0
    5.7438   -4.6632   -5.6339 C   0  0  0  0  0  0  0  0  0  0  0  0
    4.0547   -2.0879   -4.5157 N   0  0  0  0  0  0  0  0  0  0  0  0
    3.0358   -2.7473   -5.2755 C   0  0  0  0  0  0  0  0  0  0  0  0
    3.9370   -0.6523   -4.3073 C   0  0  0  0  0  0  0  0  0  0  0  0
    2.8624   -0.0862   -4.6583 O   0  0  0  0  0  0  0  0  0  0  0  0
    4.9167    0.1095   -3.7705 O   0  0  0  0  0  0  0  0  0  0  0  0
    4.9881    1.4550   -3.5234 C   0  0  0  0  0  0  0  0  0  0  0  0
    4.1239    2.1034   -2.5621 C   0  0  0  0  0  0  0  0  0  0  0  0
    4.6605    2.3646   -1.2869 C   0  0  0  0  0  0  0  0  0  0  0  0
    3.9446    3.0038   -0.3030 C   0  0  0  0  0  0  0  0  0  0  0  0
    2.6516    3.4170   -0.5360 C   0  0  0  0  0  0  0  0  0  0  0  0
    2.0914    3.1787   -1.7637 C   0  0  0  0  0  0  0  0  0  0  0  0
    2.8328    2.5324   -2.7445 C   0  0  0  0  0  0  0  0  0  0  0  0
    2.0139    4.1354    0.5182 N   0  0  0  0  0  0  0  0  0  0  0  0
    1.4537    3.5755    1.6648 C   0  0  0  0  0  0  0  0  0  0  0  0
    1.5241    2.3113    1.7942 O   0  0  0  0  0  0  0  0  0  0  0  0
    0.7734    4.2895    2.7812 C   0  0  1  0  0  0  0  0  0  0  0  0
   -0.5950    4.6237    2.3183 C   0  0  0  0  0  0  0  0  0  0  0  0
   -0.8538    5.5323    1.2060 C   0  0  0  0  0  0  0  0  0  0  0  0
   -0.5846    6.9656    1.2681 C   0  0  0  0  0  0  0  0  0  0  0  0
    0.7209    7.4431    1.5275 N   0  0  0  0  0  0  0  0  0  0  0  0
    0.8488    8.9024    1.5734 C   0  0  0  0  0  0  0  0  0  0  0  0
   -0.1803    9.5907    1.3834 O   0  0  0  0  0  0  0  0  0  0  0  0
    2.1027    9.5071    1.8255 N   0  0  0  0  0  0  0  0  0  0  0  0
    0.6253    3.4046    3.9554 N   0  0  0  0  0  0  0  0  0  0  0  0
    1.4155    3.7401    5.0646 C   0  0  0  0  0  0  0  0  0  0  0  0
    2.1666    4.7880    4.9088 O   0  0  0  0  0  0  0  0  0  0  0  0
    1.5402    3.1039    6.3649 C   0  0  1  0  0  0  0  0  0  0  0  0
    1.5691    4.1321    7.4957 C   0  0  0  0  0  0  0  0  0  0  0  0
    0.2815    4.9433    7.4834 C   0  0  0  0  0  0  0  0  0  0  0  0
    1.8269    3.5150    8.8383 C   0  0  0  0  0  0  0  0  0  0  0  0
    0.7799    2.0172    6.7788 N   0  0  0  0  0  0  0  0  0  0  0  0
    0.5821    0.7351    6.1854 C   0  0  0  0  0  0  0  0  0  0  0  0
    1.1193    0.5274    5.0685 O   0  0  0  0  0  0  0  0  0  0  0  0
   -0.2226   -0.2277    6.9308 C   0  0  0  0  0  0  0  0  0  0  0  0
   -0.9711   -1.2986    6.2699 C   0  0  0  0  0  0  0  0  0  0  0  0
   -2.1189   -0.7945    5.4128 C   0  0  0  0  0  0  0  0  0  0  0  0
   -2.9141   -1.9521    4.8389 C   0  0  0  0  0  0  0  0  0  0  0  0
   -4.1376   -1.4950    4.0617 C   0  0  0  0  0  0  0  0  0  0  0  0
   -4.9364   -2.5869    3.5639 N   0  0  0  0  0  0  0  0  0  0  0  0
   -5.9790   -3.1944    4.3454 C   0  0  0  0  0  0  0  0  0  0  0  0
   -6.3445   -2.9014    5.5154 O   0  0  0  0  0  0  0  0  0  0  0  0
   -6.5749   -4.2537    3.5292 C   0  0  0  0  0  0  0  0  0  0  0  0
   -5.9760   -4.3166    2.3488 C   0  0  0  0  0  0  0  0  0  0  0  0
   -4.9464   -3.2854    2.3402 C   0  0  0  0  0  0  0  0  0  0  0  0
   -4.1924   -3.0578    1.3905 O   0  0  0  0  0  0  0  0  0  0  0  0
   -2.3067   -5.1764    0.9420 H   0  0  0  0  0  0  0  0  0  0  0  0
   -3.2085   -4.7326   -0.5247 H   0  0  0  0  0  0  0  0  0  0  0  0
   -2.0836   -6.0860   -0.5962 H   0  0  0  0  0  0  0  0  0  0  0  0
   -1.7071   -3.1218   -0.7359 H   0  0  0  0  0  0  0  0  0  0  0  0
   -0.9450   -4.4472   -1.6466 H   0  0  0  0  0  0  0  0  0  0  0  0
    0.2346   -5.1825    0.4182 H   0  0  0  0  0  0  0  0  0  0  0  0
    0.0921   -2.8364    2.1065 H   0  0  0  0  0  0  0  0  0  0  0  0
   -1.5540   -3.3439    1.6714 H   0  0  0  0  0  0  0  0  0  0  0  0
   -0.4511   -4.5220    2.3362 H   0  0  0  0  0  0  0  0  0  0  0  0
    1.3297   -3.9469   -1.2531 H   0  0  0  0  0  0  0  0  0  0  0  0
    2.2555   -1.8975   -1.1839 H   0  0  0  0  0  0  0  0  0  0  0  0
    0.6927   -0.3058   -1.5981 H   0  0  0  0  0  0  0  0  0  0  0  0
   -0.6993   -1.1063   -0.9225 H   0  0  0  0  0  0  0  0  0  0  0  0
   -0.2389   -2.4209   -5.4239 H   0  0  0  0  0  0  0  0  0  0  0  0
   -1.9673   -2.3849   -5.1712 H   0  0  0  0  0  0  0  0  0  0  0  0
   -0.1497   -0.4574   -6.5064 H   0  0  0  0  0  0  0  0  0  0  0  0
   -1.9207   -0.3364   -6.4932 H   0  0  0  0  0  0  0  0  0  0  0  0
    0.2500    0.7472   -4.5942 H   0  0  0  0  0  0  0  0  0  0  0  0
   -1.3046    1.5330   -5.1408 H   0  0  0  0  0  0  0  0  0  0  0  0
   -1.2577    0.5255   -2.6977 H   0  0  0  0  0  0  0  0  0  0  0  0
   -3.2313   -0.2011   -4.9552 H   0  0  0  0  0  0  0  0  0  0  0  0
   -4.9408   -0.5644   -3.6219 H   0  0  0  0  0  0  0  0  0  0  0  0
   -4.0684   -2.5891   -4.0110 H   0  0  0  0  0  0  0  0  0  0  0  0
   -4.5008   -2.5955   -2.2958 H   0  0  0  0  0  0  0  0  0  0  0  0
   -2.7682   -2.5087   -2.7149 H   0  0  0  0  0  0  0  0  0  0  0  0
   -4.8365    1.7836   -2.1989 H   0  0  0  0  0  0  0  0  0  0  0  0
   -4.6047    0.8414    0.6509 H   0  0  0  0  0  0  0  0  0  0  0  0
   -6.3938    3.0815   -0.3762 H   0  0  0  0  0  0  0  0  0  0  0  0
   -6.8104    1.3538   -0.5871 H   0  0  0  0  0  0  0  0  0  0  0  0
   -6.5620    1.9348    1.0726 H   0  0  0  0  0  0  0  0  0  0  0  0
   -3.9151    3.6450   -0.3936 H   0  0  0  0  0  0  0  0  0  0  0  0
   -4.6996    5.1339    1.2193 H   0  0  0  0  0  0  0  0  0  0  0  0
   -4.9102    5.8259    3.5399 H   0  0  0  0  0  0  0  0  0  0  0  0
   -4.3111    4.3034    5.3671 H   0  0  0  0  0  0  0  0  0  0  0  0
   -3.4959    2.0452    4.8398 H   0  0  0  0  0  0  0  0  0  0  0  0
   -3.2563    1.3041    2.5104 H   0  0  0  0  0  0  0  0  0  0  0  0
   -2.6127    1.2821    0.5535 H   0  0  0  0  0  0  0  0  0  0  0  0
   -4.9056    1.2149   -5.0021 H   0  0  0  0  0  0  0  0  0  0  0  0
   -4.2822    2.9150   -4.8598 H   0  0  0  0  0  0  0  0  0  0  0  0
   -3.4518    1.6791   -5.8788 H   0  0  0  0  0  0  0  0  0  0  0  0
    2.8378    0.0739   -0.6566 H   0  0  0  0  0  0  0  0  0  0  0  0
    3.5494   -1.3431    0.3118 H   0  0  0  0  0  0  0  0  0  0  0  0
    3.0521    0.1470    1.1074 H   0  0  0  0  0  0  0  0  0  0  0  0
    3.5627   -3.8868    2.2491 H   0  0  0  0  0  0  0  0  0  0  0  0
    2.4084   -2.5885    2.1027 H   0  0  0  0  0  0  0  0  0  0  0  0
    1.8929   -4.3391    2.4946 H   0  0  0  0  0  0  0  0  0  0  0  0
    4.8175   -5.6419   -1.4578 H   0  0  0  0  0  0  0  0  0  0  0  0
    1.8653   -6.1717   -1.9682 H   0  0  0  0  0  0  0  0  0  0  0  0
    3.0665   -6.0325   -4.0003 H   0  0  0  0  0  0  0  0  0  0  0  0
    3.0694   -7.7841   -3.5631 H   0  0  0  0  0  0  0  0  0  0  0  0
    4.5270   -6.8184   -3.2996 H   0  0  0  0  0  0  0  0  0  0  0  0
    2.5683   -7.4532   -0.0604 H   0  0  0  0  0  0  0  0  0  0  0  0
    4.2925   -7.6278   -0.7436 H   0  0  0  0  0  0  0  0  0  0  0  0
    2.9308   -8.5216   -1.4215 H   0  0  0  0  0  0  0  0  0  0  0  0
    2.9273   -3.5892   -2.6807 H   0  0  0  0  0  0  0  0  0  0  0  0
    5.8141   -1.9735   -3.5151 H   0  0  0  0  0  0  0  0  0  0  0  0
    7.0981   -3.4623   -4.5759 H   0  0  0  0  0  0  0  0  0  0  0  0
    6.4904   -1.3183   -5.7270 H   0  0  0  0  0  0  0  0  0  0  0  0
    5.6611   -2.3667   -7.0232 H   0  0  0  0  0  0  0  0  0  0  0  0
    7.3904   -2.5281   -6.6631 H   0  0  0  0  0  0  0  0  0  0  0  0
    6.6468   -5.3342   -5.7649 H   0  0  0  0  0  0  0  0  0  0  0  0
    5.0613   -5.2245   -5.0110 H   0  0  0  0  0  0  0  0  0  0  0  0
    5.3710   -4.5262   -6.6872 H   0  0  0  0  0  0  0  0  0  0  0  0
    2.1095   -2.1383   -5.2706 H   0  0  0  0  0  0  0  0  0  0  0  0
    3.3209   -2.7334   -6.3830 H   0  0  0  0  0  0  0  0  0  0  0  0
    2.7596   -3.7603   -4.9708 H   0  0  0  0  0  0  0  0  0  0  0  0
    4.9281    2.0683   -4.4890 H   0  0  0  0  0  0  0  0  0  0  0  0
    6.0689    1.6644   -3.2247 H   0  0  0  0  0  0  0  0  0  0  0  0
    5.6735    2.0590   -1.0767 H   0  0  0  0  0  0  0  0  0  0  0  0
    4.4158    3.1864    0.6664 H   0  0  0  0  0  0  0  0  0  0  0  0
    1.0836    3.4972   -1.9295 H   0  0  0  0  0  0  0  0  0  0  0  0
    2.3576    2.3725   -3.7008 H   0  0  0  0  0  0  0  0  0  0  0  0
    1.9833    5.1664    0.3900 H   0  0  0  0  0  0  0  0  0  0  0  0
    1.4163    5.1370    3.0028 H   0  0  0  0  0  0  0  0  0  0  0  0
   -1.1738    3.6610    2.0745 H   0  0  0  0  0  0  0  0  0  0  0  0
   -1.2186    4.9966    3.2010 H   0  0  0  0  0  0  0  0  0  0  0  0
   -1.9522    5.4317    0.8848 H   0  0  0  0  0  0  0  0  0  0  0  0
   -0.3543    5.1504    0.2473 H   0  0  0  0  0  0  0  0  0  0  0  0
   -0.8208    7.3719    0.2124 H   0  0  0  0  0  0  0  0  0  0  0  0
   -1.3640    7.5397    1.8634 H   0  0  0  0  0  0  0  0  0  0  0  0
    1.6074    6.9602    1.6911 H   0  0  0  0  0  0  0  0  0  0  0  0
    2.4522    9.6206    2.7927 H   0  0  0  0  0  0  0  0  0  0  0  0
    2.7096    9.8584    1.0462 H   0  0  0  0  0  0  0  0  0  0  0  0
   -0.0026    2.5947    3.9931 H   0  0  0  0  0  0  0  0  0  0  0  0
    2.6328    2.6939    6.3175 H   0  0  0  0  0  0  0  0  0  0  0  0
    2.3922    4.8309    7.2678 H   0  0  0  0  0  0  0  0  0  0  0  0
    0.1265    5.3369    8.5030 H   0  0  0  0  0  0  0  0  0  0  0  0
   -0.5920    4.2934    7.2552 H   0  0  0  0  0  0  0  0  0  0  0  0
    0.2908    5.7794    6.7790 H   0  0  0  0  0  0  0  0  0  0  0  0
    2.4575    2.6171    8.6633 H   0  0  0  0  0  0  0  0  0  0  0  0
    2.4625    4.1956    9.4522 H   0  0  0  0  0  0  0  0  0  0  0  0
    0.8966    3.2367    9.3560 H   0  0  0  0  0  0  0  0  0  0  0  0
    0.2278    2.1326    7.7071 H   0  0  0  0  0  0  0  0  0  0  0  0
   -0.9774    0.3032    7.6132 H   0  0  0  0  0  0  0  0  0  0  0  0
    0.4658   -0.6945    7.7326 H   0  0  0  0  0  0  0  0  0  0  0  0
   -1.4464   -1.9245    7.0697 H   0  0  0  0  0  0  0  0  0  0  0  0
   -0.3443   -2.0259    5.6988 H   0  0  0  0  0  0  0  0  0  0  0  0
   -2.8016   -0.2575    6.0952 H   0  0  0  0  0  0  0  0  0  0  0  0
   -1.8347   -0.1284    4.6033 H   0  0  0  0  0  0  0  0  0  0  0  0
   -2.2560   -2.5456    4.1695 H   0  0  0  0  0  0  0  0  0  0  0  0
   -3.2707   -2.6400    5.6303 H   0  0  0  0  0  0  0  0  0  0  0  0
   -3.7396   -0.9680    3.1600 H   0  0  0  0  0  0  0  0  0  0  0  0
   -4.7358   -0.7482    4.6217 H   0  0  0  0  0  0  0  0  0  0  0  0
   -7.3947   -4.9326    3.7910 H   0  0  0  0  0  0  0  0  0  0  0  0
   -6.2097   -5.0130    1.5401 H   0  0  0  0  0  0  0  0  0  0  0  0
  1  2  1  0
  2  3  1  0
  3  4  1  0
  3  5  1  0
  5  6  1  0
  6  7  1  0
  7  8  1  0
  8  9  2  0
  8 10  1  0
 10 11  1  0
 11 12  1  0
 12 13  1  0
 13 14  1  0
 14 15  1  0
 15 16  1  0
 16 17  1  0
 16 18  1  0
 18 19  2  0
 18 20  1  0
 20 21  1  0
 21 22  1  0
 21 23  1  0
 23 24  1  0
 24 25  2  0
 25 26  1  0
 26 27  2  0
 27 28  1  0
 28 29  2  0
 23 30  1  0
 15 31  1  0
 31 32  1  0
  6 33  1  0
 33 34  1  0
  5 35  1  0
 35 36  1  0
 35 37  1  0
 37 38  2  0
 37 39  1  0
 39 40  1  0
 40 41  1  0
 40 42  1  0
 39 43  1  0
 43 44  1  0
 44 45  2  0
 44 46  1  0
 46 47  1  0
 47 48  1  0
 47 49  1  0
 46 50  1  0
 50 51  1  0
 50 52  1  0
 52 53  2  0
 52 54  1  0
 54 55  1  0
 55 56  1  0
 56 57  1  0
 57 58  2  0
 58 59  1  0
 59 60  2  0
 60 61  1  0
 59 62  1  0
 62 63  1  0
 63 64  2  0
 63 65  1  0
 65 66  1  0
 66 67  1  0
 67 68  1  0
 68 69  1  0
 69 70  1  0
 70 71  2  0
 70 72  1  0
 65 73  1  0
 73 74  1  0
 74 75  2  0
 74 76  1  0
 76 77  1  0
 77 78  1  0
 77 79  1  0
 76 80  1  0
 80 81  1  0
 81 82  2  0
 81 83  1  0
 83 84  1  0
 84 85  1  0
 85 86  1  0
 86 87  1  0
 87 88  1  0
 88 89  1  0
 89 90  2  0
 89 91  1  0
 91 92  2  0
 92 93  1  0
 93 94  2  0
 14 10  1  0
 29 24  1  0
 61 56  2  0
 93 88  1  0
  1 95  1  0
  1 96  1  0
  1 97  1  0
  2 98  1  0
  2 99  1  0
  3100  1  1
  4101  1  0
  4102  1  0
  4103  1  0
  5104  1  6
  6105  1  6
  7106  1  0
  7107  1  0
 11108  1  0
 11109  1  0
 12110  1  0
 12111  1  0
 13112  1  0
 13113  1  0
 14114  1  1
 15115  1  6
 16116  1  6
 17117  1  0
 17118  1  0
 17119  1  0
 20120  1  0
 21121  1  1
 22122  1  0
 22123  1  0
 22124  1  0
 23125  1  6
 25126  1  0
 26127  1  0
 27128  1  0
 28129  1  0
 29130  1  0
 30131  1  0
 32132  1  0
 32133  1  0
 32134  1  0
 34135  1  0
 34136  1  0
 34137  1  0
 36138  1  0
 36139  1  0
 36140  1  0
 39141  1  1
 40142  1  0
 41143  1  0
 41144  1  0
 41145  1  0
 42146  1  0
 42147  1  0
 42148  1  0
 43149  1  0
 46150  1  1
 47151  1  0
 48152  1  0
 48153  1  0
 48154  1  0
 49155  1  0
 49156  1  0
 49157  1  0
 51158  1  0
 51159  1  0
 51160  1  0
 55161  1  0
 55162  1  0
 57163  1  0
 58164  1  0
 60165  1  0
 61166  1  0
 62167  1  0
 65168  1  1
 66169  1  0
 66170  1  0
 67171  1  0
 67172  1  0
 68173  1  0
 68174  1  0
 69175  1  0
 72176  1  0
 72177  1  0
 73178  1  0
 76179  1  6
 77180  1  0
 78181  1  0
 78182  1  0
 78183  1  0
 79184  1  0
 79185  1  0
 79186  1  0
 80187  1  0
 83188  1  0
 83189  1  0
 84190  1  0
 84191  1  0
 85192  1  0
 85193  1  0
 86194  1  0
 86195  1  0
 87196  1  0
 87197  1  0
 91198  1  0
 92199  1  0
M  END
$$$$

     RDKit          3D

199202  0  0  0  0  0  0  0  0999 V2000
   -1.1051   -0.8125   -1.0702 C   0  0  0  0  0  0  0  0  0  0  0  0
   -0.0984   -1.0615    0.0975 C   0  0  0  0  0  0  0  0  0  0  0  0
    0.0862    0.1900    0.8327 C   0  0  2  0  0  0  0  0  0  0  0  0
    0.6446    1.2716   -0.1138 C   0  0  0  0  0  0  0  0  0  0  0  0
    0.6843    0.2864    2.1676 C   0  0  1  0  0  0  0  0  0  0  0  0
    0.0345   -0.4034    3.2906 C   0  0  1  0  0  0  0  0  0  0  0  0
    0.1342    0.4397    4.6319 C   0  0  0  0  0  0  0  0  0  0  0  0
   -0.6248    1.7007    4.4840 C   0  0  0  0  0  0  0  0  0  0  0  0
   -0.3045    2.7164    3.8588 O   0  0  0  0  0  0  0  0  0  0  0  0
   -1.9242    1.7685    5.1500 N   0  0  0  0  0  0  0  0  0  0  0  0
   -2.3694    0.7124    6.0683 C   0  0  0  0  0  0  0  0  0  0  0  0
   -3.6592    1.1383    6.6564 C   0  0  0  0  0  0  0  0  0  0  0  0
   -3.7366    2.5940    6.3538 C   0  0  0  0  0  0  0  0  0  0  0  0
   -2.9831    2.6904    5.0009 C   0  0  1  0  0  0  0  0  0  0  0  0
   -2.6710    4.1473    4.8616 C   0  0  1  0  0  0  0  0  0  0  0  0
   -4.0034    4.8221    4.4959 C   0  0  1  0  0  0  0  0  0  0  0  0
   -3.8089    6.3182    4.3461 C   0  0  0  0  0  0  0  0  0  0  0  0
   -4.3823    4.2959    3.1263 C   0  0  0  0  0  0  0  0  0  0  0  0
   -3.4911    3.7165    2.4366 O   0  0  0  0  0  0  0  0  0  0  0  0
   -5.6822    4.4172    2.5872 N   0  0  0  0  0  0  0  0  0  0  0  0
   -5.9467    3.8785    1.2866 C   0  0  2  0  0  0  0  0  0  0  0  0
   -6.0929    5.0138    0.2689 C   0  0  0  0  0  0  0  0  0  0  0  0
   -7.1639    3.0418    1.1772 C   0  0  1  0  0  0  0  0  0  0  0  0
   -7.1497    1.7350    1.8263 C   0  0  0  0  0  0  0  0  0  0  0  0
   -6.1017    1.1304    2.4491 C   0  0  0  0  0  0  0  0  0  0  0  0
   -6.1631   -0.1251    3.0405 C   0  0  0  0  0  0  0  0  0  0  0  0
   -7.3442   -0.8228    3.0083 C   0  0  0  0  0  0  0  0  0  0  0  0
   -8.4277   -0.2381    2.3849 C   0  0  0  0  0  0  0  0  0  0  0  0
   -8.3522    1.0154    1.8002 C   0  0  0  0  0  0  0  0  0  0  0  0
   -8.3146    3.7680    1.5218 O   0  0  0  0  0  0  0  0  0  0  0  0
   -2.1225    4.7682    5.9430 O   0  0  0  0  0  0  0  0  0  0  0  0
   -0.9479    5.4445    5.7617 C   0  0  0  0  0  0  0  0  0  0  0  0
   -1.3704   -0.5106    3.0972 O   0  0  0  0  0  0  0  0  0  0  0  0
   -1.7303   -1.8549    3.3383 C   0  0  0  0  0  0  0  0  0  0  0  0
    2.1599    0.2356    2.2421 N   0  0  0  0  0  0  0  0  0  0  0  0
    2.9764    1.3989    2.5280 C   0  0  0  0  0  0  0  0  0  0  0  0
    2.7218   -1.0358    2.0369 C   0  0  0  0  0  0  0  0  0  0  0  0
    1.8555   -1.9899    1.9045 O   0  0  0  0  0  0  0  0  0  0  0  0
    4.1165   -1.4766    1.9402 C   0  0  1  0  0  0  0  0  0  0  0  0
    5.0049   -1.2279    3.0979 C   0  0  0  0  0  0  0  0  0  0  0  0
    4.5618   -1.9029    4.3861 C   0  0  0  0  0  0  0  0  0  0  0  0
    6.4367   -1.7227    2.8211 C   0  0  0  0  0  0  0  0  0  0  0  0
    3.9689   -2.9714    1.7819 N   0  0  0  0  0  0  0  0  0  0  0  0
    4.3576   -3.6493    0.6315 C   0  0  0  0  0  0  0  0  0  0  0  0
    4.8750   -3.0181   -0.3409 O   0  0  0  0  0  0  0  0  0  0  0  0
    4.1907   -5.0997    0.4687 C   0  0  1  0  0  0  0  0  0  0  0  0
    3.4174   -5.7790    1.5555 C   0  0  0  0  0  0  0  0  0  0  0  0
    3.2317   -7.2643    1.2731 C   0  0  0  0  0  0  0  0  0  0  0  0
    4.1333   -5.7247    2.8836 C   0  0  0  0  0  0  0  0  0  0  0  0
    3.7263   -5.3689   -0.8489 N   0  0  0  0  0  0  0  0  0  0  0  0
    2.4214   -4.7642   -1.2037 C   0  0  0  0  0  0  0  0  0  0  0  0
    4.4292   -6.1790   -1.8182 C   0  0  0  0  0  0  0  0  0  0  0  0
    5.5170   -6.7414   -1.5665 O   0  0  0  0  0  0  0  0  0  0  0  0
    3.8683   -6.3160   -3.0130 O   0  0  0  0  0  0  0  0  0  0  0  0
    4.0080   -6.9281   -4.2330 C   0  0  0  0  0  0  0  0  0  0  0  0
    2.8431   -6.4048   -5.1001 C   0  0  0  0  0  0  0  0  0  0  0  0
    1.5849   -6.9029   -4.9509 C   0  0  0  0  0  0  0  0  0  0  0  0
    0.5377   -6.3116   -5.6783 C   0  0  0  0  0  0  0  0  0  0  0  0
    0.8672   -5.2773   -6.4840 C   0  0  0  0  0  0  0  0  0  0  0  0
    2.1782   -4.7759   -6.6338 C   0  0  0  0  0  0  0  0  0  0  0  0
    3.2082   -5.3552   -5.9190 C   0  0  0  0  0  0  0  0  0  0  0  0
   -0.0976   -4.4379   -7.1867 N   0  0  0  0  0  0  0  0  0  0  0  0
   -0.2516   -3.1833   -6.5312 C   0  0  0  0  0  0  0  0  0  0  0  0
    0.4564   -3.0467   -5.4632 O   0  0  0  0  0  0  0  0  0  0  0  0
   -1.1121   -2.0584   -6.9652 C   0  0  1  0  0  0  0  0  0  0  0  0
   -2.5650   -2.2718   -6.8879 C   0  0  0  0  0  0  0  0  0  0  0  0
   -3.0200   -2.5659   -5.4833 C   0  0  0  0  0  0  0  0  0  0  0  0
   -4.5213   -2.8167   -5.4634 C   0  0  0  0  0  0  0  0  0  0  0  0
   -5.0721   -3.1254   -4.1883 N   0  0  0  0  0  0  0  0  0  0  0  0
   -5.0743   -2.3316   -3.0314 C   0  0  0  0  0  0  0  0  0  0  0  0
   -4.5333   -1.2004   -3.0889 O   0  0  0  0  0  0  0  0  0  0  0  0
   -5.6921   -2.8408   -1.8373 N   0  0  0  0  0  0  0  0  0  0  0  0
   -0.6966   -0.9218   -6.1366 N   0  0  0  0  0  0  0  0  0  0  0  0
    0.5246   -0.3312   -6.5298 C   0  0  0  0  0  0  0  0  0  0  0  0
    1.0596   -0.9122   -7.5781 O   0  0  0  0  0  0  0  0  0  0  0  0
    1.2989    0.7684   -6.0052 C   0  0  1  0  0  0  0  0  0  0  0  0
    1.8303    1.6336   -7.1696 C   0  0  0  0  0  0  0  0  0  0  0  0
    2.6865    2.7190   -6.6135 C   0  0  0  0  0  0  0  0  0  0  0  0
    0.7546    2.1702   -8.0428 C   0  0  0  0  0  0  0  0  0  0  0  0
    0.8792    1.4884   -4.8669 N   0  0  0  0  0  0  0  0  0  0  0  0
    0.4336    2.8048   -4.7204 C   0  0  0  0  0  0  0  0  0  0  0  0
    0.2635    3.6375   -5.6712 O   0  0  0  0  0  0  0  0  0  0  0  0
    0.1089    3.4199   -3.3643 C   0  0  0  0  0  0  0  0  0  0  0  0
   -0.2368    4.8714   -3.5505 C   0  0  0  0  0  0  0  0  0  0  0  0
   -0.4708    5.5063   -2.2024 C   0  0  0  0  0  0  0  0  0  0  0  0
    0.8267    5.4060   -1.3982 C   0  0  0  0  0  0  0  0  0  0  0  0
    1.9406    6.0931   -2.1269 C   0  0  0  0  0  0  0  0  0  0  0  0
    3.1637    5.9949   -1.3434 N   0  0  0  0  0  0  0  0  0  0  0  0
    3.6495    6.9026   -0.3520 C   0  0  0  0  0  0  0  0  0  0  0  0
    3.0602    7.9506    0.0002 O   0  0  0  0  0  0  0  0  0  0  0  0
    4.9178    6.4059    0.1679 C   0  0  0  0  0  0  0  0  0  0  0  0
    5.2111    5.2614   -0.4529 C   0  0  0  0  0  0  0  0  0  0  0  0
    4.1530    4.9600   -1.4011 C   0  0  0  0  0  0  0  0  0  0  0  0
    4.1141    3.9436   -2.1610 O   0  0  0  0  0  0  0  0  0  0  0  0
   -0.5669   -0.4362   -1.9683 H   0  0  0  0  0  0  0  0  0  0  0  0
   -1.7313   -1.6848   -1.2395 H   0  0  0  0  0  0  0  0  0  0  0  0
   -1.7663    0.0142   -0.7237 H   0  0  0  0  0  0  0  0  0  0  0  0
    0.8501   -1.3033   -0.4542 H   0  0  0  0  0  0  0  0  0  0  0  0
   -0.4272   -1.9561    0.6030 H   0  0  0  0  0  0  0  0  0  0  0  0
   -0.9855    0.5959    0.9879 H   0  0  0  0  0  0  0  0  0  0  0  0
    1.6945    1.1477   -0.3484 H   0  0  0  0  0  0  0  0  0  0  0  0
   -0.0174    1.2296   -1.0072 H   0  0  0  0  0  0  0  0  0  0  0  0
    0.3802    2.2584    0.3555 H   0  0  0  0  0  0  0  0  0  0  0  0
    0.5143    1.4212    2.3970 H   0  0  0  0  0  0  0  0  0  0  0  0
    0.4350   -1.3583    3.5354 H   0  0  0  0  0  0  0  0  0  0  0  0
    1.2206    0.5840    4.7516 H   0  0  0  0  0  0  0  0  0  0  0  0
   -0.2321   -0.1767    5.4621 H   0  0  0  0  0  0  0  0  0  0  0  0
   -1.5747    0.6940    6.8661 H   0  0  0  0  0  0  0  0  0  0  0  0
   -2.4659   -0.2586    5.5961 H   0  0  0  0  0  0  0  0  0  0  0  0
   -4.5415    0.6313    6.2048 H   0  0  0  0  0  0  0  0  0  0  0  0
   -3.7099    0.9378    7.7605 H   0  0  0  0  0  0  0  0  0  0  0  0
   -3.1919    3.2148    7.0870 H   0  0  0  0  0  0  0  0  0  0  0  0
   -4.8008    2.9262    6.2333 H   0  0  0  0  0  0  0  0  0  0  0  0
   -3.7496    2.3978    4.2524 H   0  0  0  0  0  0  0  0  0  0  0  0
   -1.9974    4.3093    3.9520 H   0  0  0  0  0  0  0  0  0  0  0  0
   -4.7282    4.6044    5.2636 H   0  0  0  0  0  0  0  0  0  0  0  0
   -3.8305    6.8272    5.3474 H   0  0  0  0  0  0  0  0  0  0  0  0
   -4.7498    6.6799    3.8316 H   0  0  0  0  0  0  0  0  0  0  0  0
   -2.9743    6.6048    3.7058 H   0  0  0  0  0  0  0  0  0  0  0  0
   -6.4032    4.8998    3.1758 H   0  0  0  0  0  0  0  0  0  0  0  0
   -5.0519    3.3185    0.9430 H   0  0  0  0  0  0  0  0  0  0  0  0
   -6.6014    5.8565    0.7636 H   0  0  0  0  0  0  0  0  0  0  0  0
   -5.1156    5.3157   -0.1283 H   0  0  0  0  0  0  0  0  0  0  0  0
   -6.7107    4.6886   -0.6134 H   0  0  0  0  0  0  0  0  0  0  0  0
   -7.3068    2.8365    0.0539 H   0  0  0  0  0  0  0  0  0  0  0  0
   -5.1666    1.6305    2.4923 H   0  0  0  0  0  0  0  0  0  0  0  0
   -5.2862   -0.5625    3.5362 H   0  0  0  0  0  0  0  0  0  0  0  0
   -7.3636   -1.7946    3.4797 H   0  0  0  0  0  0  0  0  0  0  0  0
   -9.3579   -0.7693    2.3544 H   0  0  0  0  0  0  0  0  0  0  0  0
   -9.2443    1.4049    1.3276 H   0  0  0  0  0  0  0  0  0  0  0  0
   -9.0819    3.4246    1.0126 H   0  0  0  0  0  0  0  0  0  0  0  0
   -1.0014    6.2657    5.0222 H   0  0  0  0  0  0  0  0  0  0  0  0
   -0.0839    4.7668    5.6300 H   0  0  0  0  0  0  0  0  0  0  0  0
   -0.7312    5.9599    6.7443 H   0  0  0  0  0  0  0  0  0  0  0  0
   -1.4459   -2.0695    4.4046 H   0  0  0  0  0  0  0  0  0  0  0  0
   -1.0371   -2.5047    2.7533 H   0  0  0  0  0  0  0  0  0  0  0  0
   -2.7831   -2.0483    3.1014 H   0  0  0  0  0  0  0  0  0  0  0  0
    3.8302    1.5096    1.8326 H   0  0  0  0  0  0  0  0  0  0  0  0
    2.3805    2.3418    2.4329 H   0  0  0  0  0  0  0  0  0  0  0  0
    3.3227    1.3990    3.5895 H   0  0  0  0  0  0  0  0  0  0  0  0
    4.6070   -1.1184    1.0091 H   0  0  0  0  0  0  0  0  0  0  0  0
    5.1065   -0.1551    3.3530 H   0  0  0  0  0  0  0  0  0  0  0  0
    4.6449   -3.0097    4.3273 H   0  0  0  0  0  0  0  0  0  0  0  0
    3.5831   -1.5524    4.7298 H   0  0  0  0  0  0  0  0  0  0  0  0
    5.3256   -1.6102    5.1605 H   0  0  0  0  0  0  0  0  0  0  0  0
    6.4143   -2.6997    2.3023 H   0  0  0  0  0  0  0  0  0  0  0  0
    6.9977   -1.8862    3.7717 H   0  0  0  0  0  0  0  0  0  0  0  0
    7.0327   -0.9513    2.2625 H   0  0  0  0  0  0  0  0  0  0  0  0
    3.5160   -3.3870    2.6320 H   0  0  0  0  0  0  0  0  0  0  0  0
    5.2167   -5.5810    0.5361 H   0  0  0  0  0  0  0  0  0  0  0  0
    2.4279   -5.3333    1.6534 H   0  0  0  0  0  0  0  0  0  0  0  0
    2.8434   -7.4881    0.2758 H   0  0  0  0  0  0  0  0  0  0  0  0
    4.1064   -7.8715    1.5946 H   0  0  0  0  0  0  0  0  0  0  0  0
    2.4051   -7.5684    1.9755 H   0  0  0  0  0  0  0  0  0  0  0  0
    4.5090   -6.7726    3.1242 H   0  0  0  0  0  0  0  0  0  0  0  0
    3.3971   -5.4989    3.6804 H   0  0  0  0  0  0  0  0  0  0  0  0
    5.0298   -5.0964    2.9055 H   0  0  0  0  0  0  0  0  0  0  0  0
    2.2009   -4.9913   -2.2714 H   0  0  0  0  0  0  0  0  0  0  0  0
    1.5976   -5.2168   -0.6270 H   0  0  0  0  0  0  0  0  0  0  0  0
    2.5356   -3.6846   -0.9951 H   0  0  0  0  0  0  0  0  0  0  0  0
    4.9347   -6.7784   -4.7894 H   0  0  0  0  0  0  0  0  0  0  0  0
    3.7534   -8.0296   -4.1743 H   0  0  0  0  0  0  0  0  0  0  0  0
    1.3763   -7.7310   -4.2958 H   0  0  0  0  0  0  0  0  0  0  0  0
   -0.4758   -6.6544   -5.6124 H   0  0  0  0  0  0  0  0  0  0  0  0
    2.3995   -3.9576   -7.2950 H   0  0  0  0  0  0  0  0  0  0  0  0
    4.2138   -4.9828   -6.0256 H   0  0  0  0  0  0  0  0  0  0  0  0
   -0.6028   -4.6953   -8.0274 H   0  0  0  0  0  0  0  0  0  0  0  0
   -0.7836   -1.7855   -8.0257 H   0  0  0  0  0  0  0  0  0  0  0  0
   -2.9074   -3.0981   -7.5853 H   0  0  0  0  0  0  0  0  0  0  0  0
   -3.0599   -1.3095   -7.2185 H   0  0  0  0  0  0  0  0  0  0  0  0
   -2.7869   -1.6501   -4.8676 H   0  0  0  0  0  0  0  0  0  0  0  0
   -2.4831   -3.3809   -5.0177 H   0  0  0  0  0  0  0  0  0  0  0  0
   -4.9856   -1.8510   -5.8328 H   0  0  0  0  0  0  0  0  0  0  0  0
   -4.8032   -3.5492   -6.2520 H   0  0  0  0  0  0  0  0  0  0  0  0
   -5.5410   -4.0791   -4.1018 H   0  0  0  0  0  0  0  0  0  0  0  0
   -6.6795   -3.1610   -1.9388 H   0  0  0  0  0  0  0  0  0  0  0  0
   -5.1631   -2.8762   -0.9271 H   0  0  0  0  0  0  0  0  0  0  0  0
   -1.1880   -0.5365   -5.3345 H   0  0  0  0  0  0  0  0  0  0  0  0
    2.3293    0.3200   -5.6628 H   0  0  0  0  0  0  0  0  0  0  0  0
    2.5031    0.9223   -7.7281 H   0  0  0  0  0  0  0  0  0  0  0  0
    3.7708    2.5351   -6.9848 H   0  0  0  0  0  0  0  0  0  0  0  0
    2.4922    3.7363   -7.0356 H   0  0  0  0  0  0  0  0  0  0  0  0
    2.7460    2.7785   -5.5243 H   0  0  0  0  0  0  0  0  0  0  0  0
    0.8565    1.6712   -9.0495 H   0  0  0  0  0  0  0  0  0  0  0  0
   -0.2723    1.8976   -7.6802 H   0  0  0  0  0  0  0  0  0  0  0  0
    0.9116    3.2314   -8.2386 H   0  0  0  0  0  0  0  0  0  0  0  0
    0.8996    0.9261   -3.9338 H   0  0  0  0  0  0  0  0  0  0  0  0
    0.9682    3.2233   -2.7294 H   0  0  0  0  0  0  0  0  0  0  0  0
   -0.7656    2.9146   -2.9634 H   0  0  0  0  0  0  0  0  0  0  0  0
   -1.1724    4.8759   -4.1664 H   0  0  0  0  0  0  0  0  0  0  0  0
    0.5013    5.3990   -4.1562 H   0  0  0  0  0  0  0  0  0  0  0  0
   -1.1940    4.8751   -1.6534 H   0  0  0  0  0  0  0  0  0  0  0  0
   -0.8134    6.5487   -2.2656 H   0  0  0  0  0  0  0  0  0  0  0  0
    0.6267    6.0210   -0.4747 H   0  0  0  0  0  0  0  0  0  0  0  0
    0.9911    4.3712   -1.1106 H   0  0  0  0  0  0  0  0  0  0  0  0
    2.1660    5.5777   -3.0923 H   0  0  0  0  0  0  0  0  0  0  0  0
    1.6690    7.1353   -2.3196 H   0  0  0  0  0  0  0  0  0  0  0  0
    5.5117    6.9107    0.9296 H   0  0  0  0  0  0  0  0  0  0  0  0
    6.0977    4.6329   -0.2912 H   0  0  0  0  0  0  0  0  0  0  0  0
  1  2  1  0
  2  3  1  0
  3  4  1  0
  3  5  1  0
  5  6  1  0
  6  7  1  0
  7  8  1  0
  8  9  2  0
  8 10  1  0
 10 11  1  0
 11 12  1  0
 12 13  1  0
 13 14  1  0
 14 15  1  0
 15 16  1  0
 16 17  1  0
 16 18  1  0
 18 19  2  0
 18 20  1  0
 20 21  1  0
 21 22  1  0
 21 23  1  0
 23 24  1  0
 24 25  2  0
 25 26  1  0
 26 27  2  0
 27 28  1  0
 28 29  2  0
 23 30  1  0
 15 31  1  0
 31 32  1  0
  6 33  1  0
 33 34  1  0
  5 35  1  0
 35 36  1  0
 35 37  1  0
 37 38  2  0
 37 39  1  0
 39 40  1  0
 40 41  1  0
 40 42  1  0
 39 43  1  0
 43 44  1  0
 44 45  2  0
 44 46  1  0
 46 47  1  0
 47 48  1  0
 47 49  1  0
 46 50  1  0
 50 51  1  0
 50 52  1  0
 52 53  2  0
 52 54  1  0
 54 55  1  0
 55 56  1  0
 56 57  1  0
 57 58  2  0
 58 59  1  0
 59 60  2  0
 60 61  1  0
 59 62  1  0
 62 63  1  0
 63 64  2  0
 63 65  1  0
 65 66  1  0
 66 67  1  0
 67 68  1  0
 68 69  1  0
 69 70  1  0
 70 71  2  0
 70 72  1  0
 65 73  1  0
 73 74  1  0
 74 75  2  0
 74 76  1  0
 76 77  1  0
 77 78  1  0
 77 79  1  0
 76 80  1  0
 80 81  1  0
 81 82  2  0
 81 83  1  0
 83 84  1  0
 84 85  1  0
 85 86  1  0
 86 87  1  0
 87 88  1  0
 88 89  1  0
 89 90  2  0
 89 91  1  0
 91 92  2  0
 92 93  1  0
 93 94  2  0
 14 10  1  0
 29 24  1  0
 61 56  2  0
 93 88  1  0
  1 95  1  0
  1 96  1  0
  1 97  1  0
  2 98  1  0
  2 99  1  0
  3100  1  1
  4101  1  0
  4102  1  0
  4103  1  0
  5104  1  1
  6105  1  1
  7106  1  0
  7107  1  0
 11108  1  0
 11109  1  0
 12110  1  0
 12111  1  0
 13112  1  0
 13113  1  0
 14114  1  6
 15115  1  6
 16116  1  1
 17117  1  0
 17118  1  0
 17119  1  0
 20120  1  0
 21121  1  6
 22122  1  0
 22123  1  0
 22124  1  0
 23125  1  6
 25126  1  0
 26127  1  0
 27128  1  0
 28129  1  0
 29130  1  0
 30131  1  0
 32132  1  0
 32133  1  0
 32134  1  0
 34135  1  0
 34136  1  0
 34137  1  0
 36138  1  0
 36139  1  0
 36140  1  0
 39141  1  6
 40142  1  0
 41143  1  0
 41144  1  0
 41145  1  0
 42146  1  0
 42147  1  0
 42148  1  0
 43149  1  0
 46150  1  6
 47151  1  0
 48152  1  0
 48153  1  0
 48154  1  0
 49155  1  0
 49156  1  0
 49157  1  0
 51158  1  0
 51159  1  0
 51160  1  0
 55161  1  0
 55162  1  0
 57163  1  0
 58164  1  0
 60165  1  0
 61166  1  0
 62167  1  0
 65168  1  6
 66169  1  0
 66170  1  0
 67171  1  0
 67172  1  0
 68173  1  0
 68174  1  0
 69175  1  0
 72176  1  0
 72177  1  0
 73178  1  0
 76179  1  1
 77180  1  0
 78181  1  0
 78182  1  0
 78183  1  0
 79184  1  0
 79185  1  0
 79186  1  0
 80187  1  0
 83188  1  0
 83189  1  0
 84190  1  0
 84191  1  0
 85192  1  0
 85193  1  0
 86194  1  0
 86195  1  0
 87196  1  0
 87197  1  0
 91198  1  0
 92199  1  0
M  END
$$$$

     RDKit          3D

199202  0  0  0  0  0  0  0  0999 V2000
    4.7602   -5.3742   -2.1459 C   0  0  0  0  0  0  0  0  0  0  0  0
    3.5762   -4.6328   -2.6840 C   0  0  0  0  0  0  0  0  0  0  0  0
    2.4594   -4.5345   -1.6024 C   0  0  2  0  0  0  0  0  0  0  0  0
    2.1296   -5.9959   -1.3225 C   0  0  0  0  0  0  0  0  0  0  0  0
    1.3890   -3.7398   -2.2295 C   0  0  1  0  0  0  0  0  0  0  0  0
    0.1634   -3.4428   -1.3711 C   0  0  1  0  0  0  0  0  0  0  0  0
   -0.7686   -4.6206   -1.3453 C   0  0  0  0  0  0  0  0  0  0  0  0
   -1.9922   -4.2695   -0.5309 C   0  0  0  0  0  0  0  0  0  0  0  0
   -1.8495   -3.4534    0.4004 O   0  0  0  0  0  0  0  0  0  0  0  0
   -3.2558   -4.8699   -0.8771 N   0  0  0  0  0  0  0  0  0  0  0  0
   -3.3679   -5.9390   -1.8814 C   0  0  0  0  0  0  0  0  0  0  0  0
   -4.4810   -6.7676   -1.3266 C   0  0  0  0  0  0  0  0  0  0  0  0
   -5.2357   -5.9090   -0.3596 C   0  0  0  0  0  0  0  0  0  0  0  0
   -4.5809   -4.4997   -0.5248 C   0  0  1  0  0  0  0  0  0  0  0  0
   -4.8484   -3.7335    0.7174 C   0  0  1  0  0  0  0  0  0  0  0  0
   -6.1455   -2.9423    0.4529 C   0  0  1  0  0  0  0  0  0  0  0  0
   -6.5502   -2.1076    1.6310 C   0  0  0  0  0  0  0  0  0  0  0  0
   -5.7292   -2.0045   -0.6372 C   0  0  0  0  0  0  0  0  0  0  0  0
   -4.4920   -2.0171   -0.9262 O   0  0  0  0  0  0  0  0  0  0  0  0
   -6.5442   -1.1328   -1.3636 N   0  0  0  0  0  0  0  0  0  0  0  0
   -5.8793   -0.3303   -2.3938 C   0  0  2  0  0  0  0  0  0  0  0  0
   -6.0830    1.1382   -2.2343 C   0  0  0  0  0  0  0  0  0  0  0  0
   -6.3864   -0.7711   -3.7544 C   0  0  1  0  0  0  0  0  0  0  0  0
   -5.4829   -0.0993   -4.7598 C   0  0  0  0  0  0  0  0  0  0  0  0
   -4.1644   -0.5446   -4.7205 C   0  0  0  0  0  0  0  0  0  0  0  0
   -3.2994    0.0103   -5.6162 C   0  0  0  0  0  0  0  0  0  0  0  0
   -3.6593    0.9538   -6.5222 C   0  0  0  0  0  0  0  0  0  0  0  0
   -4.9943    1.3860   -6.5454 C   0  0  0  0  0  0  0  0  0  0  0  0
   -5.9219    0.8504   -5.6458 C   0  0  0  0  0  0  0  0  0  0  0  0
   -6.1226   -2.1470   -3.8176 O   0  0  0  0  0  0  0  0  0  0  0  0
   -4.8187   -4.3181    1.9025 O   0  0  0  0  0  0  0  0  0  0  0  0
   -4.0442   -3.8512    2.9121 C   0  0  0  0  0  0  0  0  0  0  0  0
    0.2812   -2.6676   -0.2984 O   0  0  0  0  0  0  0  0  0  0  0  0
   -0.1469   -1.4045   -0.2086 C   0  0  0  0  0  0  0  0  0  0  0  0
    1.9169   -2.5561   -2.9087 N   0  0  0  0  0  0  0  0  0  0  0  0
    1.5961   -2.4730   -4.3460 C   0  0  0  0  0  0  0  0  0  0  0  0
    2.7159   -1.5612   -2.2617 C   0  0  0  0  0  0  0  0  0  0  0  0
    3.0092   -1.8182   -1.0511 O   0  0  0  0  0  0  0  0  0  0  0  0
    3.2100   -0.3367   -2.8414 C   0  0  1  0  0  0  0  0  0  0  0  0
    2.3490    0.9097   -2.6633 C   0  0  0  0  0  0  0  0  0  0  0  0
    1.0042    0.7113   -3.2785 C   0  0  0  0  0  0  0  0  0  0  0  0
    2.2652    1.4077   -1.2669 C   0  0  0  0  0  0  0  0  0  0  0  0
    4.4703    0.0958   -2.1496 N   0  0  0  0  0  0  0  0  0  0  0  0
    5.3821    0.7767   -2.9580 C   0  0  0  0  0  0  0  0  0  0  0  0
    5.0412    0.9696   -4.1778 O   0  0  0  0  0  0  0  0  0  0  0  0
    6.6991    1.2968   -2.5657 C   0  0  1  0  0  0  0  0  0  0  0  0
    6.7986    2.7381   -2.9446 C   0  0  0  0  0  0  0  0  0  0  0  0
    5.8188    3.6719   -2.3527 C   0  0  0  0  0  0  0  0  0  0  0  0
    8.2020    3.2747   -2.6128 C   0  0  0  0  0  0  0  0  0  0  0  0
    7.2017    0.9095   -1.3049 N   0  0  0  0  0  0  0  0  0  0  0  0
    8.3714   -0.0068   -1.2987 C   0  0  0  0  0  0  0  0  0  0  0  0
    6.6913    1.3227   -0.0203 C   0  0  0  0  0  0  0  0  0  0  0  0
    5.7271    2.1000    0.1108 O   0  0  0  0  0  0  0  0  0  0  0  0
    7.3170    0.8266    1.0807 O   0  0  0  0  0  0  0  0  0  0  0  0
    7.0097    1.1218    2.3866 C   0  0  0  0  0  0  0  0  0  0  0  0
    5.6614    0.8255    2.8778 C   0  0  0  0  0  0  0  0  0  0  0  0
    4.6919    1.7987    2.9705 C   0  0  0  0  0  0  0  0  0  0  0  0
    3.4458    1.4963    3.4718 C   0  0  0  0  0  0  0  0  0  0  0  0
    3.1203    0.2172    3.8979 C   0  0  0  0  0  0  0  0  0  0  0  0
    4.1044   -0.7273    3.7896 C   0  0  0  0  0  0  0  0  0  0  0  0
    5.3793   -0.4541    3.2850 C   0  0  0  0  0  0  0  0  0  0  0  0
    1.8359    0.0221    4.4450 N   0  0  0  0  0  0  0  0  0  0  0  0
    1.2643   -1.2371    4.7771 C   0  0  0  0  0  0  0  0  0  0  0  0
    1.8534   -2.3195    4.6002 O   0  0  0  0  0  0  0  0  0  0  0  0
   -0.1369   -1.2594    5.3737 C   0  0  1  0  0  0  0  0  0  0  0  0
   -0.1058   -2.2383    6.5092 C   0  0  0  0  0  0  0  0  0  0  0  0
   -1.4494   -2.3638    7.1977 C   0  0  0  0  0  0  0  0  0  0  0  0
   -1.3942   -3.3567    8.3430 C   0  0  0  0  0  0  0  0  0  0  0  0
   -1.0121   -4.6814    7.9250 N   0  0  0  0  0  0  0  0  0  0  0  0
   -1.7620   -5.4247    6.9802 C   0  0  0  0  0  0  0  0  0  0  0  0
   -2.8183   -4.9821    6.4492 O   0  0  0  0  0  0  0  0  0  0  0  0
   -1.2943   -6.7311    6.6179 N   0  0  0  0  0  0  0  0  0  0  0  0
   -0.4690    0.0903    5.7951 N   0  0  0  0  0  0  0  0  0  0  0  0
   -1.2786    0.9791    5.0567 C   0  0  0  0  0  0  0  0  0  0  0  0
   -1.7010    0.4773    3.9414 O   0  0  0  0  0  0  0  0  0  0  0  0
   -1.6567    2.3294    5.4134 C   0  0  1  0  0  0  0  0  0  0  0  0
   -0.8615    3.0796    6.4232 C   0  0  0  0  0  0  0  0  0  0  0  0
   -0.8741    2.4372    7.7640 C   0  0  0  0  0  0  0  0  0  0  0  0
   -1.4651    4.4802    6.5987 C   0  0  0  0  0  0  0  0  0  0  0  0
   -2.0686    3.2417    4.4046 N   0  0  0  0  0  0  0  0  0  0  0  0
   -2.0241    3.1593    3.0197 C   0  0  0  0  0  0  0  0  0  0  0  0
   -1.5754    2.2210    2.3318 O   0  0  0  0  0  0  0  0  0  0  0  0
   -2.5674    4.3246    2.2040 C   0  0  0  0  0  0  0  0  0  0  0  0
   -2.0887    4.2229    0.7909 C   0  0  0  0  0  0  0  0  0  0  0  0
   -2.5887    5.3578   -0.0789 C   0  0  0  0  0  0  0  0  0  0  0  0
   -2.0270    5.2438   -1.4818 C   0  0  0  0  0  0  0  0  0  0  0  0
   -2.4669    6.3307   -2.4072 C   0  0  0  0  0  0  0  0  0  0  0  0
   -1.8158    6.0898   -3.6891 N   0  0  0  0  0  0  0  0  0  0  0  0
   -2.2614    5.3139   -4.7932 C   0  0  0  0  0  0  0  0  0  0  0  0
   -3.3500    4.6751   -4.8563 O   0  0  0  0  0  0  0  0  0  0  0  0
   -1.2186    5.4157   -5.8001 C   0  0  0  0  0  0  0  0  0  0  0  0
   -0.2178    6.1569   -5.4129 C   0  0  0  0  0  0  0  0  0  0  0  0
   -0.5446    6.6234   -4.0566 C   0  0  0  0  0  0  0  0  0  0  0  0
    0.2292    7.3678   -3.4023 O   0  0  0  0  0  0  0  0  0  0  0  0
    4.7393   -5.5123   -1.0399 H   0  0  0  0  0  0  0  0  0  0  0  0
    4.9392   -6.3221   -2.7004 H   0  0  0  0  0  0  0  0  0  0  0  0
    5.7095   -4.7687   -2.3109 H   0  0  0  0  0  0  0  0  0  0  0  0
    3.1022   -5.2166   -3.5103 H   0  0  0  0  0  0  0  0  0  0  0  0
    3.8759   -3.6479   -3.0099 H   0  0  0  0  0  0  0  0  0  0  0  0
    2.8956   -4.0785   -0.6973 H   0  0  0  0  0  0  0  0  0  0  0  0
    3.0773   -6.6244   -1.4260 H   0  0  0  0  0  0  0  0  0  0  0  0
    1.8093   -6.1918   -0.3003 H   0  0  0  0  0  0  0  0  0  0  0  0
    1.4895   -6.4082   -2.1288 H   0  0  0  0  0  0  0  0  0  0  0  0
    0.9138   -4.3773   -3.0600 H   0  0  0  0  0  0  0  0  0  0  0  0
   -0.4062   -2.7321   -2.1164 H   0  0  0  0  0  0  0  0  0  0  0  0
   -0.3469   -5.5640   -0.9990 H   0  0  0  0  0  0  0  0  0  0  0  0
   -1.1371   -4.7842   -2.3772 H   0  0  0  0  0  0  0  0  0  0  0  0
   -2.4285   -6.4959   -1.9997 H   0  0  0  0  0  0  0  0  0  0  0  0
   -3.6405   -5.4390   -2.8283 H   0  0  0  0  0  0  0  0  0  0  0  0
   -5.1830   -7.0414   -2.1450 H   0  0  0  0  0  0  0  0  0  0  0  0
   -4.0931   -7.7119   -0.8591 H   0  0  0  0  0  0  0  0  0  0  0  0
   -4.9657   -6.2025    0.6992 H   0  0  0  0  0  0  0  0  0  0  0  0
   -6.3162   -5.8609   -0.5214 H   0  0  0  0  0  0  0  0  0  0  0  0
   -5.1283   -4.1159   -1.4371 H   0  0  0  0  0  0  0  0  0  0  0  0
   -4.0753   -2.8484    0.7234 H   0  0  0  0  0  0  0  0  0  0  0  0
   -6.9355   -3.6099    0.0843 H   0  0  0  0  0  0  0  0  0  0  0  0
   -5.7996   -1.2905    1.7534 H   0  0  0  0  0  0  0  0  0  0  0  0
   -6.6248   -2.7162    2.5612 H   0  0  0  0  0  0  0  0  0  0  0  0
   -7.5070   -1.6358    1.3774 H   0  0  0  0  0  0  0  0  0  0  0  0
   -7.5464   -1.0913   -1.1525 H   0  0  0  0  0  0  0  0  0  0  0  0
   -4.7916   -0.5418   -2.3897 H   0  0  0  0  0  0  0  0  0  0  0  0
   -7.0249    1.5327   -2.6107 H   0  0  0  0  0  0  0  0  0  0  0  0
   -5.2778    1.6329   -2.8574 H   0  0  0  0  0  0  0  0  0  0  0  0
   -5.8552    1.4831   -1.1796 H   0  0  0  0  0  0  0  0  0  0  0  0
   -7.4155   -0.5106   -3.9465 H   0  0  0  0  0  0  0  0  0  0  0  0
   -3.8500   -1.3120   -3.9941 H   0  0  0  0  0  0  0  0  0  0  0  0
   -2.2563   -0.3491   -5.5682 H   0  0  0  0  0  0  0  0  0  0  0  0
   -2.9158    1.3483   -7.2002 H   0  0  0  0  0  0  0  0  0  0  0  0
   -5.2845    2.1328   -7.2606 H   0  0  0  0  0  0  0  0  0  0  0  0
   -6.9486    1.1554   -5.6342 H   0  0  0  0  0  0  0  0  0  0  0  0
   -6.7155   -2.5048   -4.5528 H   0  0  0  0  0  0  0  0  0  0  0  0
   -4.2221   -4.4906    3.8276 H   0  0  0  0  0  0  0  0  0  0  0  0
   -2.9697   -4.0115    2.6958 H   0  0  0  0  0  0  0  0  0  0  0  0
   -4.2536   -2.7756    3.1699 H   0  0  0  0  0  0  0  0  0  0  0  0
    0.0540   -1.0565    0.8555 H   0  0  0  0  0  0  0  0  0  0  0  0
    0.5340   -0.7014   -0.7798 H   0  0  0  0  0  0  0  0  0  0  0  0
   -1.1631   -1.1170   -0.4505 H   0  0  0  0  0  0  0  0  0  0  0  0
    1.9250   -3.4273   -4.7789 H   0  0  0  0  0  0  0  0  0  0  0  0
    2.0801   -1.5977   -4.7526 H   0  0  0  0  0  0  0  0  0  0  0  0
    0.4959   -2.3727   -4.4461 H   0  0  0  0  0  0  0  0  0  0  0  0
    3.4018   -0.3978   -3.9051 H   0  0  0  0  0  0  0  0  0  0  0  0
    2.9361    1.7017   -3.2516 H   0  0  0  0  0  0  0  0  0  0  0  0
    0.3615    1.5467   -2.8934 H   0  0  0  0  0  0  0  0  0  0  0  0
    0.5708   -0.2675   -3.0507 H   0  0  0  0  0  0  0  0  0  0  0  0
    1.0790    0.7878   -4.3903 H   0  0  0  0  0  0  0  0  0  0  0  0
    2.9069    2.2753   -1.0464 H   0  0  0  0  0  0  0  0  0  0  0  0
    2.5660    0.6088   -0.5269 H   0  0  0  0  0  0  0  0  0  0  0  0
    1.2314    1.6816   -1.0035 H   0  0  0  0  0  0  0  0  0  0  0  0
    4.6403   -0.0973   -1.1539 H   0  0  0  0  0  0  0  0  0  0  0  0
    7.3867    0.7838   -3.3509 H   0  0  0  0  0  0  0  0  0  0  0  0
    6.7396    2.8403   -4.0738 H   0  0  0  0  0  0  0  0  0  0  0  0
    5.6505    4.5107   -3.1013 H   0  0  0  0  0  0  0  0  0  0  0  0
    4.8094    3.2972   -2.1545 H   0  0  0  0  0  0  0  0  0  0  0  0
    6.3096    4.2026   -1.5016 H   0  0  0  0  0  0  0  0  0  0  0  0
    8.9042    2.4186   -2.5229 H   0  0  0  0  0  0  0  0  0  0  0  0
    8.1809    3.8281   -1.6546 H   0  0  0  0  0  0  0  0  0  0  0  0
    8.5580    3.9771   -3.3994 H   0  0  0  0  0  0  0  0  0  0  0  0
    9.0872    0.2578   -0.5194 H   0  0  0  0  0  0  0  0  0  0  0  0
    7.9878   -1.0598   -1.1869 H   0  0  0  0  0  0  0  0  0  0  0  0
    8.8693    0.0437   -2.2831 H   0  0  0  0  0  0  0  0  0  0  0  0
    7.7513    0.5642    3.0689 H   0  0  0  0  0  0  0  0  0  0  0  0
    7.2759    2.2025    2.6488 H   0  0  0  0  0  0  0  0  0  0  0  0
    4.8631    2.8204    2.6650 H   0  0  0  0  0  0  0  0  0  0  0  0
    2.6999    2.3029    3.5325 H   0  0  0  0  0  0  0  0  0  0  0  0
    3.9422   -1.7415    4.0899 H   0  0  0  0  0  0  0  0  0  0  0  0
    6.1170   -1.2663    3.2221 H   0  0  0  0  0  0  0  0  0  0  0  0
    1.2346    0.8535    4.6269 H   0  0  0  0  0  0  0  0  0  0  0  0
   -0.8277   -1.6134    4.5752 H   0  0  0  0  0  0  0  0  0  0  0  0
    0.6974   -1.9619    7.2391 H   0  0  0  0  0  0  0  0  0  0  0  0
    0.1690   -3.2527    6.1666 H   0  0  0  0  0  0  0  0  0  0  0  0
   -1.6798   -1.3583    7.6300 H   0  0  0  0  0  0  0  0  0  0  0  0
   -2.1958   -2.7293    6.4950 H   0  0  0  0  0  0  0  0  0  0  0  0
   -0.7262   -3.0381    9.1708 H   0  0  0  0  0  0  0  0  0  0  0  0
   -2.4082   -3.4522    8.7862 H   0  0  0  0  0  0  0  0  0  0  0  0
   -0.1391   -5.1427    8.3232 H   0  0  0  0  0  0  0  0  0  0  0  0
   -1.9438   -7.5506    6.5213 H   0  0  0  0  0  0  0  0  0  0  0  0
   -0.2545   -6.8333    6.4507 H   0  0  0  0  0  0  0  0  0  0  0  0
   -0.0499    0.3774    6.7057 H   0  0  0  0  0  0  0  0  0  0  0  0
   -2.7113    2.1465    5.9662 H   0  0  0  0  0  0  0  0  0  0  0  0
    0.1812    3.3104    6.0667 H   0  0  0  0  0  0  0  0  0  0  0  0
    0.1062    2.1346    8.1708 H   0  0  0  0  0  0  0  0  0  0  0  0
   -1.6017    1.6086    7.8785 H   0  0  0  0  0  0  0  0  0  0  0  0
   -1.2419    3.1778    8.5645 H   0  0  0  0  0  0  0  0  0  0  0  0
   -1.0166    4.8353    7.5763 H   0  0  0  0  0  0  0  0  0  0  0  0
   -2.5465    4.4600    6.7545 H   0  0  0  0  0  0  0  0  0  0  0  0
   -1.0840    5.1978    5.8535 H   0  0  0  0  0  0  0  0  0  0  0  0
   -2.4876    4.1635    4.7921 H   0  0  0  0  0  0  0  0  0  0  0  0
   -3.6565    4.3588    2.2437 H   0  0  0  0  0  0  0  0  0  0  0  0
   -2.1933    5.2736    2.6343 H   0  0  0  0  0  0  0  0  0  0  0  0
   -0.9654    4.2466    0.7254 H   0  0  0  0  0  0  0  0  0  0  0  0
   -2.3823    3.2328    0.3667 H   0  0  0  0  0  0  0  0  0  0  0  0
   -3.7130    5.3087   -0.1408 H   0  0  0  0  0  0  0  0  0  0  0  0
   -2.3363    6.3386    0.3281 H   0  0  0  0  0  0  0  0  0  0  0  0
   -0.9264    5.2307   -1.4242 H   0  0  0  0  0  0  0  0  0  0  0  0
   -2.3616    4.2891   -1.9107 H   0  0  0  0  0  0  0  0  0  0  0  0
   -3.5595    6.2298   -2.6053 H   0  0  0  0  0  0  0  0  0  0  0  0
   -2.2077    7.3581   -2.0857 H   0  0  0  0  0  0  0  0  0  0  0  0
   -1.2442    4.9317   -6.7915 H   0  0  0  0  0  0  0  0  0  0  0  0
    0.6805    6.3929   -5.9716 H   0  0  0  0  0  0  0  0  0  0  0  0
  1  2  1  0
  2  3  1  0
  3  4  1  0
  3  5  1  0
  5  6  1  0
  6  7  1  0
  7  8  1  0
  8  9  2  0
  8 10  1  0
 10 11  1  0
 11 12  1  0
 12 13  1  0
 13 14  1  0
 14 15  1  0
 15 16  1  0
 16 17  1  0
 16 18  1  0
 18 19  2  0
 18 20  1  0
 20 21  1  0
 21 22  1  0
 21 23  1  0
 23 24  1  0
 24 25  2  0
 25 26  1  0
 26 27  2  0
 27 28  1  0
 28 29  2  0
 23 30  1  0
 15 31  1  0
 31 32  1  0
  6 33  1  0
 33 34  1  0
  5 35  1  0
 35 36  1  0
 35 37  1  0
 37 38  2  0
 37 39  1  0
 39 40  1  0
 40 41  1  0
 40 42  1  0
 39 43  1  0
 43 44  1  0
 44 45  2  0
 44 46  1  0
 46 47  1  0
 47 48  1  0
 47 49  1  0
 46 50  1  0
 50 51  1  0
 50 52  1  0
 52 53  2  0
 52 54  1  0
 54 55  1  0
 55 56  1  0
 56 57  1  0
 57 58  2  0
 58 59  1  0
 59 60  2  0
 60 61  1  0
 59 62  1  0
 62 63  1  0
 63 64  2  0
 63 65  1  0
 65 66  1  0
 66 67  1  0
 67 68  1  0
 68 69  1  0
 69 70  1  0
 70 71  2  0
 70 72  1  0
 65 73  1  0
 73 74  1  0
 74 75  2  0
 74 76  1  0
 76 77  1  0
 77 78  1  0
 77 79  1  0
 76 80  1  0
 80 81  1  0
 81 82  2  0
 81 83  1  0
 83 84  1  0
 84 85  1  0
 85 86  1  0
 86 87  1  0
 87 88  1  0
 88 89  1  0
 89 90  2  0
 89 91  1  0
 91 92  2  0
 92 93  1  0
 93 94  2  0
 14 10  1  0
 29 24  1  0
 61 56  2  0
 93 88  1  0
  1 95  1  0
  1 96  1  0
  1 97  1  0
  2 98  1  0
  2 99  1  0
  3100  1  1
  4101  1  0
  4102  1  0
  4103  1  0
  5104  1  6
  6105  1  6
  7106  1  0
  7107  1  0
 11108  1  0
 11109  1  0
 12110  1  0
 12111  1  0
 13112  1  0
 13113  1  0
 14114  1  6
 15115  1  1
 16116  1  6
 17117  1  0
 17118  1  0
 17119  1  0
 20120  1  0
 21121  1  6
 22122  1  0
 22123  1  0
 22124  1  0
 23125  1  6
 25126  1  0
 26127  1  0
 27128  1  0
 28129  1  0
 29130  1  0
 30131  1  0
 32132  1  0
 32133  1  0
 32134  1  0
 34135  1  0
 34136  1  0
 34137  1  0
 36138  1  0
 36139  1  0
 36140  1  0
 39141  1  6
 40142  1  0
 41143  1  0
 41144  1  0
 41145  1  0
 42146  1  0
 42147  1  0
 42148  1  0
 43149  1  0
 46150  1  6
 47151  1  0
 48152  1  0
 48153  1  0
 48154  1  0
 49155  1  0
 49156  1  0
 49157  1  0
 51158  1  0
 51159  1  0
 51160  1  0
 55161  1  0
 55162  1  0
 57163  1  0
 58164  1  0
 60165  1  0
 61166  1  0
 62167  1  0
 65168  1  6
 66169  1  0
 66170  1  0
 67171  1  0
 67172  1  0
 68173  1  0
 68174  1  0
 69175  1  0
 72176  1  0
 72177  1  0
 73178  1  0
 76179  1  1
 77180  1  0
 78181  1  0
 78182  1  0
 78183  1  0
 79184  1  0
 79185  1  0
 79186  1  0
 80187  1  0
 83188  1  0
 83189  1  0
 84190  1  0
 84191  1  0
 85192  1  0
 85193  1  0
 86194  1  0
 86195  1  0
 87196  1  0
 87197  1  0
 91198  1  0
 92199  1  0
M  END
$$$$

     RDKit          3D

199202  0  0  0  0  0  0  0  0999 V2000
    5.1616    1.7452   -2.6953 C   0  0  0  0  0  0  0  0  0  0  0  0
    4.4158    2.1084   -1.3930 C   0  0  0  0  0  0  0  0  0  0  0  0
    4.5833    0.9923   -0.3788 C   0  0  2  0  0  0  0  0  0  0  0  0
    3.9522   -0.2342   -1.0319 C   0  0  0  0  0  0  0  0  0  0  0  0
    3.9588    1.2270    0.9472 C   0  0  1  0  0  0  0  0  0  0  0  0
    4.1209    0.1576    1.9672 C   0  0  1  0  0  0  0  0  0  0  0  0
    5.3891   -0.3483    2.4535 C   0  0  0  0  0  0  0  0  0  0  0  0
    6.3453   -1.0391    1.5964 C   0  0  0  0  0  0  0  0  0  0  0  0
    7.3755   -0.5626    1.0719 O   0  0  0  0  0  0  0  0  0  0  0  0
    6.0813   -2.4278    1.3240 N   0  0  0  0  0  0  0  0  0  0  0  0
    4.9139   -3.2073    1.7878 C   0  0  0  0  0  0  0  0  0  0  0  0
    5.6000   -4.4654    2.3432 C   0  0  0  0  0  0  0  0  0  0  0  0
    6.9261   -4.5146    1.6507 C   0  0  0  0  0  0  0  0  0  0  0  0
    6.8552   -3.4159    0.5930 C   0  0  1  0  0  0  0  0  0  0  0  0
    6.2723   -3.8638   -0.6957 C   0  0  1  0  0  0  0  0  0  0  0  0
    6.6070   -2.7561   -1.7340 C   0  0  1  0  0  0  0  0  0  0  0  0
    8.1213   -2.7020   -1.7845 C   0  0  0  0  0  0  0  0  0  0  0  0
    5.9774   -3.0243   -3.0237 C   0  0  0  0  0  0  0  0  0  0  0  0
    6.7206   -3.3330   -4.0210 O   0  0  0  0  0  0  0  0  0  0  0  0
    4.5765   -2.9571   -3.2215 N   0  0  0  0  0  0  0  0  0  0  0  0
    3.9366   -3.2308   -4.5080 C   0  0  2  0  0  0  0  0  0  0  0  0
    3.7906   -1.8495   -5.1553 C   0  0  0  0  0  0  0  0  0  0  0  0
    2.6336   -3.9199   -4.3591 C   0  0  1  0  0  0  0  0  0  0  0  0
    1.6441   -3.0726   -3.5984 C   0  0  0  0  0  0  0  0  0  0  0  0
    0.9872   -2.0435   -4.2417 C   0  0  0  0  0  0  0  0  0  0  0  0
    0.0746   -1.2096   -3.6157 C   0  0  0  0  0  0  0  0  0  0  0  0
   -0.1871   -1.4321   -2.2585 C   0  0  0  0  0  0  0  0  0  0  0  0
    0.4570   -2.4574   -1.5874 C   0  0  0  0  0  0  0  0  0  0  0  0
    1.3684   -3.2683   -2.2718 C   0  0  0  0  0  0  0  0  0  0  0  0
    2.0951   -4.1639   -5.6266 O   0  0  0  0  0  0  0  0  0  0  0  0
    7.1493   -4.9047   -1.1566 O   0  0  0  0  0  0  0  0  0  0  0  0
    6.3926   -6.0180   -1.5010 C   0  0  0  0  0  0  0  0  0  0  0  0
    3.3012    0.4997    3.0708 O   0  0  0  0  0  0  0  0  0  0  0  0
    2.3133   -0.4504    3.3014 C   0  0  0  0  0  0  0  0  0  0  0  0
    4.2852    2.5482    1.4903 N   0  0  0  0  0  0  0  0  0  0  0  0
    5.7393    2.7318    1.7122 C   0  0  0  0  0  0  0  0  0  0  0  0
    3.4589    3.6091    1.7905 C   0  0  0  0  0  0  0  0  0  0  0  0
    4.1660    4.6364    2.3349 O   0  0  0  0  0  0  0  0  0  0  0  0
    2.0789    3.9824    1.7231 C   0  0  1  0  0  0  0  0  0  0  0  0
    0.8964    3.2634    1.2977 C   0  0  0  0  0  0  0  0  0  0  0  0
    0.8115    2.8179   -0.1369 C   0  0  0  0  0  0  0  0  0  0  0  0
    0.4147    2.1222    2.1615 C   0  0  0  0  0  0  0  0  0  0  0  0
    1.7367    5.0261    2.7444 N   0  0  0  0  0  0  0  0  0  0  0  0
    1.2752    6.2983    2.3903 C   0  0  0  0  0  0  0  0  0  0  0  0
    1.1778    6.5209    1.1206 O   0  0  0  0  0  0  0  0  0  0  0  0
    0.8789    7.4177    3.2233 C   0  0  1  0  0  0  0  0  0  0  0  0
   -0.4665    8.0003    2.6918 C   0  0  0  0  0  0  0  0  0  0  0  0
   -0.3125    8.4736    1.2670 C   0  0  0  0  0  0  0  0  0  0  0  0
   -0.9039    9.1653    3.5422 C   0  0  0  0  0  0  0  0  0  0  0  0
    0.7853    7.1832    4.6156 N   0  0  0  0  0  0  0  0  0  0  0  0
    1.6110    8.0572    5.4949 C   0  0  0  0  0  0  0  0  0  0  0  0
    0.0231    6.2191    5.3108 C   0  0  0  0  0  0  0  0  0  0  0  0
   -0.0614    6.2491    6.5834 O   0  0  0  0  0  0  0  0  0  0  0  0
   -0.6849    5.1765    4.7176 O   0  0  0  0  0  0  0  0  0  0  0  0
   -1.4510    4.3463    5.6196 C   0  0  0  0  0  0  0  0  0  0  0  0
   -1.9989    3.1862    4.8762 C   0  0  0  0  0  0  0  0  0  0  0  0
   -3.0280    3.2625    3.9661 C   0  0  0  0  0  0  0  0  0  0  0  0
   -3.4114    2.0906    3.3013 C   0  0  0  0  0  0  0  0  0  0  0  0
   -2.7788    0.8898    3.5476 C   0  0  0  0  0  0  0  0  0  0  0  0
   -1.7305    0.7986    4.4833 C   0  0  0  0  0  0  0  0  0  0  0  0
   -1.3804    1.9629    5.1131 C   0  0  0  0  0  0  0  0  0  0  0  0
   -2.9874   -0.2475    2.7616 N   0  0  0  0  0  0  0  0  0  0  0  0
   -4.0150   -1.1799    2.6460 C   0  0  0  0  0  0  0  0  0  0  0  0
   -5.0823   -1.2141    3.2681 O   0  0  0  0  0  0  0  0  0  0  0  0
   -3.7098   -2.2683    1.5816 C   0  0  1  0  0  0  0  0  0  0  0  0
   -2.6600   -3.1570    2.1059 C   0  0  0  0  0  0  0  0  0  0  0  0
   -2.1510   -4.2653    1.2565 C   0  0  0  0  0  0  0  0  0  0  0  0
   -3.1407   -5.2819    0.8270 C   0  0  0  0  0  0  0  0  0  0  0  0
   -2.5169   -6.3378    0.0310 N   0  0  0  0  0  0  0  0  0  0  0  0
   -1.4829   -7.1742    0.5432 C   0  0  0  0  0  0  0  0  0  0  0  0
   -1.0356   -7.0684    1.7102 O   0  0  0  0  0  0  0  0  0  0  0  0
   -0.9035   -8.1901   -0.2733 N   0  0  0  0  0  0  0  0  0  0  0  0
   -4.9270   -2.9911    1.2585 N   0  0  0  0  0  0  0  0  0  0  0  0
   -5.6194   -2.5218    0.1320 C   0  0  0  0  0  0  0  0  0  0  0  0
   -5.1071   -1.5042   -0.4643 O   0  0  0  0  0  0  0  0  0  0  0  0
   -6.8616   -3.0209   -0.4912 C   0  0  1  0  0  0  0  0  0  0  0  0
   -8.0521   -3.1303    0.3761 C   0  0  0  0  0  0  0  0  0  0  0  0
   -9.2606   -3.6503   -0.4079 C   0  0  0  0  0  0  0  0  0  0  0  0
   -7.8902   -4.0007    1.5771 C   0  0  0  0  0  0  0  0  0  0  0  0
   -7.1408   -2.0234   -1.5696 N   0  0  0  0  0  0  0  0  0  0  0  0
   -6.6386   -2.1965   -2.8773 C   0  0  0  0  0  0  0  0  0  0  0  0
   -5.9512   -3.1875   -3.2413 O   0  0  0  0  0  0  0  0  0  0  0  0
   -6.9625   -1.0946   -3.8503 C   0  0  0  0  0  0  0  0  0  0  0  0
   -6.1598   -1.2433   -5.1307 C   0  0  0  0  0  0  0  0  0  0  0  0
   -6.5016   -0.0825   -6.0231 C   0  0  0  0  0  0  0  0  0  0  0  0
   -5.7305   -0.0927   -7.3119 C   0  0  0  0  0  0  0  0  0  0  0  0
   -4.2431    0.0362   -7.0249 C   0  0  0  0  0  0  0  0  0  0  0  0
   -3.8843    1.2614   -6.3724 N   0  0  0  0  0  0  0  0  0  0  0  0
   -3.5220    2.4545   -7.1085 C   0  0  0  0  0  0  0  0  0  0  0  0
   -3.4832    2.5716   -8.3709 O   0  0  0  0  0  0  0  0  0  0  0  0
   -3.2025    3.5237   -6.1797 C   0  0  0  0  0  0  0  0  0  0  0  0
   -3.3504    3.0498   -4.9337 C   0  0  0  0  0  0  0  0  0  0  0  0
   -3.7758    1.6388   -5.0219 C   0  0  0  0  0  0  0  0  0  0  0  0
   -3.9855    0.9547   -3.9983 O   0  0  0  0  0  0  0  0  0  0  0  0
    5.3045    2.7411   -3.2124 H   0  0  0  0  0  0  0  0  0  0  0  0
    6.1631    1.3444   -2.5109 H   0  0  0  0  0  0  0  0  0  0  0  0
    4.5375    1.1714   -3.3900 H   0  0  0  0  0  0  0  0  0  0  0  0
    4.8364    3.0709   -1.0658 H   0  0  0  0  0  0  0  0  0  0  0  0
    3.3874    2.2584   -1.7152 H   0  0  0  0  0  0  0  0  0  0  0  0
    5.7010    0.8646   -0.3348 H   0  0  0  0  0  0  0  0  0  0  0  0
    4.1518   -1.1545   -0.4555 H   0  0  0  0  0  0  0  0  0  0  0  0
    4.2719   -0.3613   -2.0711 H   0  0  0  0  0  0  0  0  0  0  0  0
    2.8435   -0.0807   -0.9295 H   0  0  0  0  0  0  0  0  0  0  0  0
    2.8631    1.2721    0.7862 H   0  0  0  0  0  0  0  0  0  0  0  0
    3.5695   -0.8006    1.5868 H   0  0  0  0  0  0  0  0  0  0  0  0
    5.1439   -1.0837    3.2945 H   0  0  0  0  0  0  0  0  0  0  0  0
    5.9615    0.4299    3.0436 H   0  0  0  0  0  0  0  0  0  0  0  0
    4.2392   -3.4629    0.9403 H   0  0  0  0  0  0  0  0  0  0  0  0
    4.3969   -2.7696    2.6310 H   0  0  0  0  0  0  0  0  0  0  0  0
    5.7269   -4.3619    3.4412 H   0  0  0  0  0  0  0  0  0  0  0  0
    4.9910   -5.3275    2.0279 H   0  0  0  0  0  0  0  0  0  0  0  0
    7.7208   -4.3059    2.3843 H   0  0  0  0  0  0  0  0  0  0  0  0
    7.1208   -5.4815    1.2071 H   0  0  0  0  0  0  0  0  0  0  0  0
    7.9261   -3.0789    0.4685 H   0  0  0  0  0  0  0  0  0  0  0  0
    5.2402   -4.1489   -0.6971 H   0  0  0  0  0  0  0  0  0  0  0  0
    6.2989   -1.8244   -1.2386 H   0  0  0  0  0  0  0  0  0  0  0  0
    8.5531   -1.8710   -1.2156 H   0  0  0  0  0  0  0  0  0  0  0  0
    8.3952   -2.5421   -2.8629 H   0  0  0  0  0  0  0  0  0  0  0  0
    8.5717   -3.6848   -1.5389 H   0  0  0  0  0  0  0  0  0  0  0  0
    3.9561   -2.7179   -2.4430 H   0  0  0  0  0  0  0  0  0  0  0  0
    4.5929   -3.7836   -5.1985 H   0  0  0  0  0  0  0  0  0  0  0  0
    3.3043   -1.1194   -4.5126 H   0  0  0  0  0  0  0  0  0  0  0  0
    3.3967   -1.9339   -6.1864 H   0  0  0  0  0  0  0  0  0  0  0  0
    4.8593   -1.5067   -5.2740 H   0  0  0  0  0  0  0  0  0  0  0  0
    2.7854   -4.8822   -3.8698 H   0  0  0  0  0  0  0  0  0  0  0  0
    1.1671   -1.8423   -5.3052 H   0  0  0  0  0  0  0  0  0  0  0  0
   -0.4235   -0.4006   -4.1568 H   0  0  0  0  0  0  0  0  0  0  0  0
   -0.8892   -0.8033   -1.7380 H   0  0  0  0  0  0  0  0  0  0  0  0
    0.2446   -2.6114   -0.5405 H   0  0  0  0  0  0  0  0  0  0  0  0
    1.8528   -4.0516   -1.7335 H   0  0  0  0  0  0  0  0  0  0  0  0
    1.0994   -4.1132   -5.5438 H   0  0  0  0  0  0  0  0  0  0  0  0
    5.8518   -6.3527   -0.5884 H   0  0  0  0  0  0  0  0  0  0  0  0
    7.0667   -6.8195   -1.8078 H   0  0  0  0  0  0  0  0  0  0  0  0
    5.6123   -5.7736   -2.2535 H   0  0  0  0  0  0  0  0  0  0  0  0
    1.7179   -0.0766    4.1555 H   0  0  0  0  0  0  0  0  0  0  0  0
    1.6441   -0.6578    2.4730 H   0  0  0  0  0  0  0  0  0  0  0  0
    2.7514   -1.4090    3.6870 H   0  0  0  0  0  0  0  0  0  0  0  0
    5.8665    2.7778    2.8062 H   0  0  0  0  0  0  0  0  0  0  0  0
    6.0161    3.7824    1.3756 H   0  0  0  0  0  0  0  0  0  0  0  0
    6.3543    1.9652    1.2922 H   0  0  0  0  0  0  0  0  0  0  0  0
    2.1378    4.7649    0.7833 H   0  0  0  0  0  0  0  0  0  0  0  0
    0.0503    4.0764    1.3405 H   0  0  0  0  0  0  0  0  0  0  0  0
    1.5799    3.2622   -0.7694 H   0  0  0  0  0  0  0  0  0  0  0  0
    0.8480    1.7040   -0.1739 H   0  0  0  0  0  0  0  0  0  0  0  0
   -0.2221    3.0540   -0.5316 H   0  0  0  0  0  0  0  0  0  0  0  0
    0.4238    1.1589    1.6290 H   0  0  0  0  0  0  0  0  0  0  0  0
    0.8957    2.0224    3.1216 H   0  0  0  0  0  0  0  0  0  0  0  0
   -0.6850    2.3236    2.3369 H   0  0  0  0  0  0  0  0  0  0  0  0
    1.8363    4.8031    3.7627 H   0  0  0  0  0  0  0  0  0  0  0  0
    1.5950    8.3003    3.0395 H   0  0  0  0  0  0  0  0  0  0  0  0
   -1.2368    7.1870    2.6860 H   0  0  0  0  0  0  0  0  0  0  0  0
   -0.7345    7.7548    0.5294 H   0  0  0  0  0  0  0  0  0  0  0  0
    0.7271    8.7588    1.0099 H   0  0  0  0  0  0  0  0  0  0  0  0
   -0.9132    9.4062    1.1499 H   0  0  0  0  0  0  0  0  0  0  0  0
   -0.0000    9.7013    3.9206 H   0  0  0  0  0  0  0  0  0  0  0  0
   -1.4852    9.8891    2.9528 H   0  0  0  0  0  0  0  0  0  0  0  0
   -1.5553    8.8449    4.3941 H   0  0  0  0  0  0  0  0  0  0  0  0
    2.2767    8.6448    4.8624 H   0  0  0  0  0  0  0  0  0  0  0  0
    2.2721    7.3922    6.1264 H   0  0  0  0  0  0  0  0  0  0  0  0
    0.9916    8.6406    6.1761 H   0  0  0  0  0  0  0  0  0  0  0  0
   -2.3470    4.9252    5.9914 H   0  0  0  0  0  0  0  0  0  0  0  0
   -0.7997    4.0064    6.4173 H   0  0  0  0  0  0  0  0  0  0  0  0
   -3.5124    4.2067    3.7889 H   0  0  0  0  0  0  0  0  0  0  0  0
   -4.2303    2.1392    2.5669 H   0  0  0  0  0  0  0  0  0  0  0  0
   -1.2569   -0.1643    4.6616 H   0  0  0  0  0  0  0  0  0  0  0  0
   -0.5611    1.8924    5.8414 H   0  0  0  0  0  0  0  0  0  0  0  0
   -2.1303   -0.4317    2.0938 H   0  0  0  0  0  0  0  0  0  0  0  0
   -3.3560   -1.6859    0.7256 H   0  0  0  0  0  0  0  0  0  0  0  0
   -1.7590   -2.5687    2.4565 H   0  0  0  0  0  0  0  0  0  0  0  0
   -3.0400   -3.6505    3.0645 H   0  0  0  0  0  0  0  0  0  0  0  0
   -1.3156   -4.8060    1.7976 H   0  0  0  0  0  0  0  0  0  0  0  0
   -1.6713   -3.8380    0.3279 H   0  0  0  0  0  0  0  0  0  0  0  0
   -3.6738   -5.7642    1.6678 H   0  0  0  0  0  0  0  0  0  0  0  0
   -3.9316   -4.8328    0.1648 H   0  0  0  0  0  0  0  0  0  0  0  0
   -2.8013   -6.5347   -0.9643 H   0  0  0  0  0  0  0  0  0  0  0  0
   -0.4995   -9.0754    0.1197 H   0  0  0  0  0  0  0  0  0  0  0  0
   -0.8481   -8.0922   -1.3108 H   0  0  0  0  0  0  0  0  0  0  0  0
   -5.3058   -3.7868    1.7821 H   0  0  0  0  0  0  0  0  0  0  0  0
   -6.6112   -3.9769   -1.0157 H   0  0  0  0  0  0  0  0  0  0  0  0
   -8.3244   -2.1076    0.7604 H   0  0  0  0  0  0  0  0  0  0  0  0
   -9.0714   -4.7102   -0.6227 H   0  0  0  0  0  0  0  0  0  0  0  0
   -9.4436   -3.0183   -1.2795 H   0  0  0  0  0  0  0  0  0  0  0  0
  -10.1260   -3.5609    0.2853 H   0  0  0  0  0  0  0  0  0  0  0  0
   -7.3275   -4.9376    1.3785 H   0  0  0  0  0  0  0  0  0  0  0  0
   -7.5177   -3.4650    2.4667 H   0  0  0  0  0  0  0  0  0  0  0  0
   -8.9347   -4.3461    1.8586 H   0  0  0  0  0  0  0  0  0  0  0  0
   -7.7352   -1.1956   -1.2804 H   0  0  0  0  0  0  0  0  0  0  0  0
   -8.0282   -1.1564   -4.0831 H   0  0  0  0  0  0  0  0  0  0  0  0
   -6.7433   -0.0882   -3.4204 H   0  0  0  0  0  0  0  0  0  0  0  0
   -6.4705   -2.2150   -5.6003 H   0  0  0  0  0  0  0  0  0  0  0  0
   -5.1057   -1.2940   -4.8774 H   0  0  0  0  0  0  0  0  0  0  0  0
   -6.2910    0.8703   -5.4749 H   0  0  0  0  0  0  0  0  0  0  0  0
   -7.5835   -0.0672   -6.2326 H   0  0  0  0  0  0  0  0  0  0  0  0
   -6.0700    0.7342   -7.9727 H   0  0  0  0  0  0  0  0  0  0  0  0
   -5.9144   -1.0452   -7.8276 H   0  0  0  0  0  0  0  0  0  0  0  0
   -3.7458   -0.0162   -8.0276 H   0  0  0  0  0  0  0  0  0  0  0  0
   -3.9080   -0.8383   -6.4413 H   0  0  0  0  0  0  0  0  0  0  0  0
   -2.8937    4.5391   -6.3508 H   0  0  0  0  0  0  0  0  0  0  0  0
   -3.1834    3.6151   -4.0108 H   0  0  0  0  0  0  0  0  0  0  0  0
  1  2  1  0
  2  3  1  0
  3  4  1  0
  3  5  1  0
  5  6  1  0
  6  7  1  0
  7  8  1  0
  8  9  2  0
  8 10  1  0
 10 11  1  0
 11 12  1  0
 12 13  1  0
 13 14  1  0
 14 15  1  0
 15 16  1  0
 16 17  1  0
 16 18  1  0
 18 19  2  0
 18 20  1  0
 20 21  1  0
 21 22  1  0
 21 23  1  0
 23 24  1  0
 24 25  2  0
 25 26  1  0
 26 27  2  0
 27 28  1  0
 28 29  2  0
 23 30  1  0
 15 31  1  0
 31 32  1  0
  6 33  1  0
 33 34  1  0
  5 35  1  0
 35 36  1  0
 35 37  1  0
 37 38  2  0
 37 39  1  0
 39 40  1  0
 40 41  1  0
 40 42  1  0
 39 43  1  0
 43 44  1  0
 44 45  2  0
 44 46  1  0
 46 47  1  0
 47 48  1  0
 47 49  1  0
 46 50  1  0
 50 51  1  0
 50 52  1  0
 52 53  2  0
 52 54  1  0
 54 55  1  0
 55 56  1  0
 56 57  1  0
 57 58  2  0
 58 59  1  0
 59 60  2  0
 60 61  1  0
 59 62  1  0
 62 63  1  0
 63 64  2  0
 63 65  1  0
 65 66  1  0
 66 67  1  0
 67 68  1  0
 68 69  1  0
 69 70  1  0
 70 71  2  0
 70 72  1  0
 65 73  1  0
 73 74  1  0
 74 75  2  0
 74 76  1  0
 76 77  1  0
 77 78  1  0
 77 79  1  0
 76 80  1  0
 80 81  1  0
 81 82  2  0
 81 83  1  0
 83 84  1  0
 84 85  1  0
 85 86  1  0
 86 87  1  0
 87 88  1  0
 88 89  1  0
 89 90  2  0
 89 91  1  0
 91 92  2  0
 92 93  1  0
 93 94  2  0
 14 10  1  0
 29 24  1  0
 61 56  2  0
 93 88  1  0
  1 95  1  0
  1 96  1  0
  1 97  1  0
  2 98  1  0
  2 99  1  0
  3100  1  1
  4101  1  0
  4102  1  0
  4103  1  0
  5104  1  6
  6105  1  6
  7106  1  0
  7107  1  0
 11108  1  0
 11109  1  0
 12110  1  0
 12111  1  0
 13112  1  0
 13113  1  0
 14114  1  6
 15115  1  1
 16116  1  1
 17117  1  0
 17118  1  0
 17119  1  0
 20120  1  0
 21121  1  6
 22122  1  0
 22123  1  0
 22124  1  0
 23125  1  1
 25126  1  0
 26127  1  0
 27128  1  0
 28129  1  0
 29130  1  0
 30131  1  0
 32132  1  0
 32133  1  0
 32134  1  0
 34135  1  0
 34136  1  0
 34137  1  0
 36138  1  0
 36139  1  0
 36140  1  0
 39141  1  6
 40142  1  0
 41143  1  0
 41144  1  0
 41145  1  0
 42146  1  0
 42147  1  0
 42148  1  0
 43149  1  0
 46150  1  1
 47151  1  0
 48152  1  0
 48153  1  0
 48154  1  0
 49155  1  0
 49156  1  0
 49157  1  0
 51158  1  0
 51159  1  0
 51160  1  0
 55161  1  0
 55162  1  0
 57163  1  0
 58164  1  0
 60165  1  0
 61166  1  0
 62167  1  0
 65168  1  6
 66169  1  0
 66170  1  0
 67171  1  0
 67172  1  0
 68173  1  0
 68174  1  0
 69175  1  0
 72176  1  0
 72177  1  0
 73178  1  0
 76179  1  6
 77180  1  0
 78181  1  0
 78182  1  0
 78183  1  0
 79184  1  0
 79185  1  0
 79186  1  0
 80187  1  0
 83188  1  0
 83189  1  0
 84190  1  0
 84191  1  0
 85192  1  0
 85193  1  0
 86194  1  0
 86195  1  0
 87196  1  0
 87197  1  0
 91198  1  0
 92199  1  0
M  END
$$$$

     RDKit          3D

199202  0  0  0  0  0  0  0  0999 V2000
   -1.8201    7.1614   -0.8987 C   0  0  0  0  0  0  0  0  0  0  0  0
   -1.4543    6.4254    0.3441 C   0  0  0  0  0  0  0  0  0  0  0  0
   -0.1521    5.6455    0.2552 C   0  0  2  0  0  0  0  0  0  0  0  0
    0.9200    6.6472   -0.0474 C   0  0  0  0  0  0  0  0  0  0  0  0
   -0.1975    4.4659   -0.6298 C   0  0  1  0  0  0  0  0  0  0  0  0
    1.1874    3.7590   -0.6583 C   0  0  1  0  0  0  0  0  0  0  0  0
    1.8668    3.6098    0.6057 C   0  0  0  0  0  0  0  0  0  0  0  0
    3.1855    3.0254    0.7958 C   0  0  0  0  0  0  0  0  0  0  0  0
    3.4567    2.7681    2.0566 O   0  0  0  0  0  0  0  0  0  0  0  0
    4.2482    2.6658   -0.0480 N   0  0  0  0  0  0  0  0  0  0  0  0
    4.3621    2.9783   -1.4997 C   0  0  0  0  0  0  0  0  0  0  0  0
    5.8571    3.3226   -1.6036 C   0  0  0  0  0  0  0  0  0  0  0  0
    6.4859    2.8841   -0.3001 C   0  0  0  0  0  0  0  0  0  0  0  0
    5.4454    1.9147    0.1804 C   0  0  1  0  0  0  0  0  0  0  0  0
    5.7660    1.2872    1.4904 C   0  0  1  0  0  0  0  0  0  0  0  0
    5.0039    0.0347    1.7684 C   0  0  1  0  0  0  0  0  0  0  0  0
    5.3070   -1.0374    0.7154 C   0  0  0  0  0  0  0  0  0  0  0  0
    5.3612   -0.5535    3.0753 C   0  0  0  0  0  0  0  0  0  0  0  0
    6.1828   -0.0426    3.8785 O   0  0  0  0  0  0  0  0  0  0  0  0
    4.7864   -1.8010    3.5490 N   0  0  0  0  0  0  0  0  0  0  0  0
    5.2319   -2.3139    4.8342 C   0  0  2  0  0  0  0  0  0  0  0  0
    5.7015   -3.7505    4.7319 C   0  0  0  0  0  0  0  0  0  0  0  0
    4.3045   -2.1106    5.9628 C   0  0  1  0  0  0  0  0  0  0  0  0
    2.9728   -2.6957    5.9045 C   0  0  0  0  0  0  0  0  0  0  0  0
    2.0877   -2.3123    6.9328 C   0  0  0  0  0  0  0  0  0  0  0  0
    0.8157   -2.7704    7.0259 C   0  0  0  0  0  0  0  0  0  0  0  0
    0.3633   -3.6542    6.0717 C   0  0  0  0  0  0  0  0  0  0  0  0
    1.2132   -4.0238    5.0850 C   0  0  0  0  0  0  0  0  0  0  0  0
    2.5185   -3.5810    4.9502 C   0  0  0  0  0  0  0  0  0  0  0  0
    4.9357   -2.5918    7.1504 O   0  0  0  0  0  0  0  0  0  0  0  0
    7.0973    0.7821    1.2354 O   0  0  0  0  0  0  0  0  0  0  0  0
    8.0825    1.3908    1.9098 C   0  0  0  0  0  0  0  0  0  0  0  0
    0.9708    2.7106   -1.4994 O   0  0  0  0  0  0  0  0  0  0  0  0
    1.2610    2.7469   -2.8059 C   0  0  0  0  0  0  0  0  0  0  0  0
   -1.3264    3.6217   -0.3183 N   0  0  0  0  0  0  0  0  0  0  0  0
   -1.6233    3.0554    0.9768 C   0  0  0  0  0  0  0  0  0  0  0  0
   -2.2250    3.3918   -1.4152 C   0  0  0  0  0  0  0  0  0  0  0  0
   -1.8241    4.0547   -2.4742 O   0  0  0  0  0  0  0  0  0  0  0  0
   -3.4072    2.6277   -1.6004 C   0  0  1  0  0  0  0  0  0  0  0  0
   -3.0312    1.4071   -2.4862 C   0  0  0  0  0  0  0  0  0  0  0  0
   -4.2751    0.5559   -2.6993 C   0  0  0  0  0  0  0  0  0  0  0  0
   -2.4638    1.7542   -3.8089 C   0  0  0  0  0  0  0  0  0  0  0  0
   -4.1816    2.0332   -0.5654 N   0  0  0  0  0  0  0  0  0  0  0  0
   -5.5640    2.4016   -0.4865 C   0  0  0  0  0  0  0  0  0  0  0  0
   -5.9960    3.2675   -1.3340 O   0  0  0  0  0  0  0  0  0  0  0  0
   -6.5581    1.8913    0.4632 C   0  0  1  0  0  0  0  0  0  0  0  0
   -7.8009    2.7573    0.4780 C   0  0  0  0  0  0  0  0  0  0  0  0
   -8.5158    2.8569   -0.8167 C   0  0  0  0  0  0  0  0  0  0  0  0
   -8.7186    2.3625    1.6200 C   0  0  0  0  0  0  0  0  0  0  0  0
   -6.8831    0.4880    0.3304 N   0  0  0  0  0  0  0  0  0  0  0  0
   -7.5514   -0.0584   -0.8551 C   0  0  0  0  0  0  0  0  0  0  0  0
   -6.5785   -0.4836    1.3536 C   0  0  0  0  0  0  0  0  0  0  0  0
   -5.9667   -0.0074    2.3476 O   0  0  0  0  0  0  0  0  0  0  0  0
   -6.9336   -1.8017    1.2174 O   0  0  0  0  0  0  0  0  0  0  0  0
   -6.6249   -2.8424    2.1602 C   0  0  0  0  0  0  0  0  0  0  0  0
   -5.1000   -2.8701    2.2363 C   0  0  0  0  0  0  0  0  0  0  0  0
   -4.4772   -3.5013    1.1942 C   0  0  0  0  0  0  0  0  0  0  0  0
   -3.1018   -3.4360    1.1336 C   0  0  0  0  0  0  0  0  0  0  0  0
   -2.4644   -2.7451    2.1210 C   0  0  0  0  0  0  0  0  0  0  0  0
   -3.1052   -2.1081    3.1881 C   0  0  0  0  0  0  0  0  0  0  0  0
   -4.4877   -2.1778    3.2435 C   0  0  0  0  0  0  0  0  0  0  0  0
   -1.0409   -2.4428    2.0741 N   0  0  0  0  0  0  0  0  0  0  0  0
   -0.8691   -1.1290    1.4704 C   0  0  0  0  0  0  0  0  0  0  0  0
   -2.0017   -0.6181    1.1361 O   0  0  0  0  0  0  0  0  0  0  0  0
    0.3978   -0.4366    1.2759 C   0  0  1  0  0  0  0  0  0  0  0  0
    0.7148    0.3596    2.4878 C   0  0  0  0  0  0  0  0  0  0  0  0
    0.8623   -0.3758    3.7678 C   0  0  0  0  0  0  0  0  0  0  0  0
    1.0703    0.6780    4.8630 C   0  0  0  0  0  0  0  0  0  0  0  0
    2.2228    1.5004    4.6402 N   0  0  0  0  0  0  0  0  0  0  0  0
    2.4969    2.5416    5.5893 C   0  0  0  0  0  0  0  0  0  0  0  0
    1.7772    2.7592    6.5910 O   0  0  0  0  0  0  0  0  0  0  0  0
    3.6308    3.4120    5.4455 N   0  0  0  0  0  0  0  0  0  0  0  0
    1.4371   -1.3018    0.7681 N   0  0  0  0  0  0  0  0  0  0  0  0
    1.4277   -1.4383   -0.6437 C   0  0  0  0  0  0  0  0  0  0  0  0
    0.4881   -0.7586   -1.2273 O   0  0  0  0  0  0  0  0  0  0  0  0
    2.2600   -2.1968   -1.5620 C   0  0  1  0  0  0  0  0  0  0  0  0
    2.4242   -3.6649   -1.2208 C   0  0  0  0  0  0  0  0  0  0  0  0
    1.1203   -4.4007   -1.2019 C   0  0  0  0  0  0  0  0  0  0  0  0
    3.3238   -4.3384   -2.2661 C   0  0  0  0  0  0  0  0  0  0  0  0
    1.6399   -2.0335   -2.8744 N   0  0  0  0  0  0  0  0  0  0  0  0
    2.2833   -1.8594   -4.1099 C   0  0  0  0  0  0  0  0  0  0  0  0
    3.5303   -1.8585   -4.1951 O   0  0  0  0  0  0  0  0  0  0  0  0
    1.3760   -1.6803   -5.2744 C   0  0  0  0  0  0  0  0  0  0  0  0
    1.9350   -1.9591   -6.6097 C   0  0  0  0  0  0  0  0  0  0  0  0
    2.3754   -3.4162   -6.7522 C   0  0  0  0  0  0  0  0  0  0  0  0
    1.2042   -4.3256   -6.4473 C   0  0  0  0  0  0  0  0  0  0  0  0
    0.0066   -4.1184   -7.3142 C   0  0  0  0  0  0  0  0  0  0  0  0
   -1.0184   -5.0383   -6.8107 N   0  0  0  0  0  0  0  0  0  0  0  0
   -1.3072   -6.3695   -7.1704 C   0  0  0  0  0  0  0  0  0  0  0  0
   -0.6912   -7.0105   -8.0684 O   0  0  0  0  0  0  0  0  0  0  0  0
   -2.4188   -6.8203   -6.3216 C   0  0  0  0  0  0  0  0  0  0  0  0
   -2.7975   -5.8659   -5.5005 C   0  0  0  0  0  0  0  0  0  0  0  0
   -1.9524   -4.7069   -5.7568 C   0  0  0  0  0  0  0  0  0  0  0  0
   -1.9712   -3.5692   -5.1878 O   0  0  0  0  0  0  0  0  0  0  0  0
   -2.9147    7.3559   -0.8963 H   0  0  0  0  0  0  0  0  0  0  0  0
   -1.3666    8.1932   -0.9470 H   0  0  0  0  0  0  0  0  0  0  0  0
   -1.5343    6.6631   -1.8232 H   0  0  0  0  0  0  0  0  0  0  0  0
   -1.2450    7.2030    1.1407 H   0  0  0  0  0  0  0  0  0  0  0  0
   -2.2977    5.8485    0.7287 H   0  0  0  0  0  0  0  0  0  0  0  0
    0.0366    5.3266    1.3223 H   0  0  0  0  0  0  0  0  0  0  0  0
    1.1917    7.2499    0.8587 H   0  0  0  0  0  0  0  0  0  0  0  0
    0.4714    7.4139   -0.7529 H   0  0  0  0  0  0  0  0  0  0  0  0
    1.8119    6.2999   -0.5535 H   0  0  0  0  0  0  0  0  0  0  0  0
   -0.3494    4.7975   -1.6928 H   0  0  0  0  0  0  0  0  0  0  0  0
    1.7588    4.5229   -1.2982 H   0  0  0  0  0  0  0  0  0  0  0  0
    1.1491    3.1333    1.3983 H   0  0  0  0  0  0  0  0  0  0  0  0
    1.9307    4.6585    1.0806 H   0  0  0  0  0  0  0  0  0  0  0  0
    4.1699    2.0693   -2.0587 H   0  0  0  0  0  0  0  0  0  0  0  0
    3.7753    3.8531   -1.7637 H   0  0  0  0  0  0  0  0  0  0  0  0
    6.2924    2.8364   -2.4904 H   0  0  0  0  0  0  0  0  0  0  0  0
    5.8926    4.4534   -1.6525 H   0  0  0  0  0  0  0  0  0  0  0  0
    6.6598    3.7283    0.3838 H   0  0  0  0  0  0  0  0  0  0  0  0
    7.3990    2.3095   -0.5698 H   0  0  0  0  0  0  0  0  0  0  0  0
    5.4969    1.0729   -0.5850 H   0  0  0  0  0  0  0  0  0  0  0  0
    5.8148    1.9697    2.3092 H   0  0  0  0  0  0  0  0  0  0  0  0
    3.9270    0.2498    1.7993 H   0  0  0  0  0  0  0  0  0  0  0  0
    4.9275   -0.8034   -0.2718 H   0  0  0  0  0  0  0  0  0  0  0  0
    6.4377   -1.0735    0.6544 H   0  0  0  0  0  0  0  0  0  0  0  0
    4.9468   -1.9917    1.1429 H   0  0  0  0  0  0  0  0  0  0  0  0
    4.0948   -2.2459    2.9296 H   0  0  0  0  0  0  0  0  0  0  0  0
    6.1649   -1.7231    5.1228 H   0  0  0  0  0  0  0  0  0  0  0  0
    5.5856   -4.1927    3.7150 H   0  0  0  0  0  0  0  0  0  0  0  0
    6.7749   -3.8269    5.0443 H   0  0  0  0  0  0  0  0  0  0  0  0
    5.1554   -4.3279    5.5108 H   0  0  0  0  0  0  0  0  0  0  0  0
    4.2696   -0.9974    6.1475 H   0  0  0  0  0  0  0  0  0  0  0  0
    2.4327   -1.6124    7.7053 H   0  0  0  0  0  0  0  0  0  0  0  0
    0.1506   -2.4469    7.8444 H   0  0  0  0  0  0  0  0  0  0  0  0
   -0.6582   -4.0001    6.1811 H   0  0  0  0  0  0  0  0  0  0  0  0
    0.8889   -4.7282    4.3061 H   0  0  0  0  0  0  0  0  0  0  0  0
    3.1597   -3.9151    4.1583 H   0  0  0  0  0  0  0  0  0  0  0  0
    4.5946   -3.4985    7.3171 H   0  0  0  0  0  0  0  0  0  0  0  0
    8.0460    1.3778    2.9979 H   0  0  0  0  0  0  0  0  0  0  0  0
    8.2579    2.4607    1.6083 H   0  0  0  0  0  0  0  0  0  0  0  0
    9.0378    0.8107    1.6689 H   0  0  0  0  0  0  0  0  0  0  0  0
    2.2640    2.8761   -3.1770 H   0  0  0  0  0  0  0  0  0  0  0  0
    0.5628    3.4604   -3.3832 H   0  0  0  0  0  0  0  0  0  0  0  0
    0.9213    1.7481   -3.2386 H   0  0  0  0  0  0  0  0  0  0  0  0
   -2.7245    3.1374    1.2031 H   0  0  0  0  0  0  0  0  0  0  0  0
   -1.0977    3.5296    1.8147 H   0  0  0  0  0  0  0  0  0  0  0  0
   -1.4336    1.9767    0.8879 H   0  0  0  0  0  0  0  0  0  0  0  0
   -4.1071    3.2436   -2.2428 H   0  0  0  0  0  0  0  0  0  0  0  0
   -2.3237    0.8164   -1.9075 H   0  0  0  0  0  0  0  0  0  0  0  0
   -4.0319   -0.1520   -3.5081 H   0  0  0  0  0  0  0  0  0  0  0  0
   -5.1397    1.1667   -3.0502 H   0  0  0  0  0  0  0  0  0  0  0  0
   -4.5273   -0.0374   -1.7988 H   0  0  0  0  0  0  0  0  0  0  0  0
   -3.2701    2.1778   -4.4454 H   0  0  0  0  0  0  0  0  0  0  0  0
   -2.1810    0.7957   -4.3566 H   0  0  0  0  0  0  0  0  0  0  0  0
   -1.5343    2.3242   -3.8089 H   0  0  0  0  0  0  0  0  0  0  0  0
   -3.8554    1.3516    0.1524 H   0  0  0  0  0  0  0  0  0  0  0  0
   -6.0799    1.9770    1.4862 H   0  0  0  0  0  0  0  0  0  0  0  0
   -7.4262    3.7892    0.7254 H   0  0  0  0  0  0  0  0  0  0  0  0
   -8.6527    3.9352   -1.1466 H   0  0  0  0  0  0  0  0  0  0  0  0
   -9.5892    2.5037   -0.7282 H   0  0  0  0  0  0  0  0  0  0  0  0
   -8.0286    2.3803   -1.6859 H   0  0  0  0  0  0  0  0  0  0  0  0
   -9.7713    2.7010    1.4129 H   0  0  0  0  0  0  0  0  0  0  0  0
   -8.7918    1.2763    1.7771 H   0  0  0  0  0  0  0  0  0  0  0  0
   -8.4029    2.9278    2.5107 H   0  0  0  0  0  0  0  0  0  0  0  0
   -7.0918    0.2729   -1.7992 H   0  0  0  0  0  0  0  0  0  0  0  0
   -8.6421    0.0525   -0.8290 H   0  0  0  0  0  0  0  0  0  0  0  0
   -7.3944   -1.1859   -0.8654 H   0  0  0  0  0  0  0  0  0  0  0  0
   -7.0053   -2.6661    3.1565 H   0  0  0  0  0  0  0  0  0  0  0  0
   -6.9474   -3.7858    1.7583 H   0  0  0  0  0  0  0  0  0  0  0  0
   -5.0292   -4.0331    0.4369 H   0  0  0  0  0  0  0  0  0  0  0  0
   -2.5740   -3.9148    0.3371 H   0  0  0  0  0  0  0  0  0  0  0  0
   -2.5735   -1.5754    3.9563 H   0  0  0  0  0  0  0  0  0  0  0  0
   -4.9626   -1.7051    4.0725 H   0  0  0  0  0  0  0  0  0  0  0  0
   -0.2801   -3.0174    2.3854 H   0  0  0  0  0  0  0  0  0  0  0  0
    0.2077    0.3380    0.4614 H   0  0  0  0  0  0  0  0  0  0  0  0
   -0.0399    1.1894    2.6129 H   0  0  0  0  0  0  0  0  0  0  0  0
    1.6774    0.8746    2.3000 H   0  0  0  0  0  0  0  0  0  0  0  0
    0.0727   -1.0777    4.0103 H   0  0  0  0  0  0  0  0  0  0  0  0
    1.8196   -0.9474    3.7478 H   0  0  0  0  0  0  0  0  0  0  0  0
    0.1747    1.3676    4.8932 H   0  0  0  0  0  0  0  0  0  0  0  0
    1.1437    0.2153    5.8675 H   0  0  0  0  0  0  0  0  0  0  0  0
    2.8877    1.4161    3.8445 H   0  0  0  0  0  0  0  0  0  0  0  0
    3.4794    4.2251    4.7916 H   0  0  0  0  0  0  0  0  0  0  0  0
    4.5320    3.2496    5.9487 H   0  0  0  0  0  0  0  0  0  0  0  0
    2.1614   -1.8111    1.2718 H   0  0  0  0  0  0  0  0  0  0  0  0
    3.2800   -1.8039   -1.6680 H   0  0  0  0  0  0  0  0  0  0  0  0
    2.9283   -3.8012   -0.2447 H   0  0  0  0  0  0  0  0  0  0  0  0
    1.2872   -5.4269   -1.6383 H   0  0  0  0  0  0  0  0  0  0  0  0
    0.4187   -3.9144   -1.8834 H   0  0  0  0  0  0  0  0  0  0  0  0
    0.7594   -4.4858   -0.1478 H   0  0  0  0  0  0  0  0  0  0  0  0
    4.2671   -3.8072   -2.3979 H   0  0  0  0  0  0  0  0  0  0  0  0
    2.7765   -4.3599   -3.2485 H   0  0  0  0  0  0  0  0  0  0  0  0
    3.4454   -5.3921   -1.9640 H   0  0  0  0  0  0  0  0  0  0  0  0
    0.5786   -2.0591   -2.8524 H   0  0  0  0  0  0  0  0  0  0  0  0
    0.3843   -2.1580   -5.0819 H   0  0  0  0  0  0  0  0  0  0  0  0
    1.1256   -0.5726   -5.2644 H   0  0  0  0  0  0  0  0  0  0  0  0
    1.1590   -1.7377   -7.3692 H   0  0  0  0  0  0  0  0  0  0  0  0
    2.8370   -1.3554   -6.7847 H   0  0  0  0  0  0  0  0  0  0  0  0
    3.2716   -3.6271   -6.1663 H   0  0  0  0  0  0  0  0  0  0  0  0
    2.6131   -3.5697   -7.8221 H   0  0  0  0  0  0  0  0  0  0  0  0
    1.5525   -5.3766   -6.6259 H   0  0  0  0  0  0  0  0  0  0  0  0
    0.8785   -4.2951   -5.3917 H   0  0  0  0  0  0  0  0  0  0  0  0
   -0.4283   -3.0992   -7.2657 H   0  0  0  0  0  0  0  0  0  0  0  0
    0.1726   -4.4034   -8.3682 H   0  0  0  0  0  0  0  0  0  0  0  0
   -2.9000   -7.7968   -6.3260 H   0  0  0  0  0  0  0  0  0  0  0  0
   -3.5914   -5.9145   -4.7591 H   0  0  0  0  0  0  0  0  0  0  0  0
  1  2  1  0
  2  3  1  0
  3  4  1  0
  3  5  1  0
  5  6  1  0
  6  7  1  0
  7  8  1  0
  8  9  2  0
  8 10  1  0
 10 11  1  0
 11 12  1  0
 12 13  1  0
 13 14  1  0
 14 15  1  0
 15 16  1  0
 16 17  1  0
 16 18  1  0
 18 19  2  0
 18 20  1  0
 20 21  1  0
 21 22  1  0
 21 23  1  0
 23 24  1  0
 24 25  2  0
 25 26  1  0
 26 27  2  0
 27 28  1  0
 28 29  2  0
 23 30  1  0
 15 31  1  0
 31 32  1  0
  6 33  1  0
 33 34  1  0
  5 35  1  0
 35 36  1  0
 35 37  1  0
 37 38  2  0
 37 39  1  0
 39 40  1  0
 40 41  1  0
 40 42  1  0
 39 43  1  0
 43 44  1  0
 44 45  2  0
 44 46  1  0
 46 47  1  0
 47 48  1  0
 47 49  1  0
 46 50  1  0
 50 51  1  0
 50 52  1  0
 52 53  2  0
 52 54  1  0
 54 55  1  0
 55 56  1  0
 56 57  1  0
 57 58  2  0
 58 59  1  0
 59 60  2  0
 60 61  1  0
 59 62  1  0
 62 63  1  0
 63 64  2  0
 63 65  1  0
 65 66  1  0
 66 67  1  0
 67 68  1  0
 68 69  1  0
 69 70  1  0
 70 71  2  0
 70 72  1  0
 65 73  1  0
 73 74  1  0
 74 75  2  0
 74 76  1  0
 76 77  1  0
 77 78  1  0
 77 79  1  0
 76 80  1  0
 80 81  1  0
 81 82  2  0
 81 83  1  0
 83 84  1  0
 84 85  1  0
 85 86  1  0
 86 87  1  0
 87 88  1  0
 88 89  1  0
 89 90  2  0
 89 91  1  0
 91 92  2  0
 92 93  1  0
 93 94  2  0
 14 10  1  0
 29 24  1  0
 61 56  2  0
 93 88  1  0
  1 95  1  0
  1 96  1  0
  1 97  1  0
  2 98  1  0
  2 99  1  0
  3100  1  1
  4101  1  0
  4102  1  0
  4103  1  0
  5104  1  6
  6105  1  6
  7106  1  0
  7107  1  0
 11108  1  0
 11109  1  0
 12110  1  0
 12111  1  0
 13112  1  0
 13113  1  0
 14114  1  6
 15115  1  1
 16116  1  1
 17117  1  0
 17118  1  0
 17119  1  0
 20120  1  0
 21121  1  1
 22122  1  0
 22123  1  0
 22124  1  0
 23125  1  1
 25126  1  0
 26127  1  0
 27128  1  0
 28129  1  0
 29130  1  0
 30131  1  0
 32132  1  0
 32133  1  0
 32134  1  0
 34135  1  0
 34136  1  0
 34137  1  0
 36138  1  0
 36139  1  0
 36140  1  0
 39141  1  6
 40142  1  0
 41143  1  0
 41144  1  0
 41145  1  0
 42146  1  0
 42147  1  0
 42148  1  0
 43149  1  0
 46150  1  1
 47151  1  0
 48152  1  0
 48153  1  0
 48154  1  0
 49155  1  0
 49156  1  0
 49157  1  0
 51158  1  0
 51159  1  0
 51160  1  0
 55161  1  0
 55162  1  0
 57163  1  0
 58164  1  0
 60165  1  0
 61166  1  0
 62167  1  0
 65168  1  6
 66169  1  0
 66170  1  0
 67171  1  0
 67172  1  0
 68173  1  0
 68174  1  0
 69175  1  0
 72176  1  0
 72177  1  0
 73178  1  0
 76179  1  6
 77180  1  0
 78181  1  0
 78182  1  0
 78183  1  0
 79184  1  0
 79185  1  0
 79186  1  0
 80187  1  0
 83188  1  0
 83189  1  0
 84190  1  0
 84191  1  0
 85192  1  0
 85193  1  0
 86194  1  0
 86195  1  0
 87196  1  0
 87197  1  0
 91198  1  0
 92199  1  0
M  END
$$$$

     RDKit          3D

199202  0  0  0  0  0  0  0  0999 V2000
   -5.0879    2.2942   -0.7473 C   0  0  0  0  0  0  0  0  0  0  0  0
   -3.8605    3.0364   -0.2606 C   0  0  0  0  0  0  0  0  0  0  0  0
   -2.6486    2.8032   -1.1582 C   0  0  2  0  0  0  0  0  0  0  0  0
   -2.3129    1.3712   -1.1980 C   0  0  0  0  0  0  0  0  0  0  0  0
   -1.5760    3.8082   -0.9326 C   0  0  1  0  0  0  0  0  0  0  0  0
   -0.9510    3.9312    0.3762 C   0  0  1  0  0  0  0  0  0  0  0  0
   -0.2737    2.8315    1.0613 C   0  0  0  0  0  0  0  0  0  0  0  0
    0.2775    3.3377    2.3791 C   0  0  0  0  0  0  0  0  0  0  0  0
    1.3304    4.0514    2.2385 O   0  0  0  0  0  0  0  0  0  0  0  0
   -0.3065    3.0487    3.6221 N   0  0  0  0  0  0  0  0  0  0  0  0
   -1.5188    2.2766    3.9393 C   0  0  0  0  0  0  0  0  0  0  0  0
   -2.1689    3.2004    4.9994 C   0  0  0  0  0  0  0  0  0  0  0  0
   -0.9447    3.4373    5.8464 C   0  0  0  0  0  0  0  0  0  0  0  0
    0.1739    3.4729    4.9135 C   0  0  1  0  0  0  0  0  0  0  0  0
    1.4725    2.9271    5.3183 C   0  0  1  0  0  0  0  0  0  0  0  0
    1.7204    1.6231    5.8898 C   0  0  1  0  0  0  0  0  0  0  0  0
    1.0722    1.2904    7.2192 C   0  0  0  0  0  0  0  0  0  0  0  0
    1.5905    0.4326    4.9620 C   0  0  0  0  0  0  0  0  0  0  0  0
    1.2839    0.6051    3.7337 O   0  0  0  0  0  0  0  0  0  0  0  0
    1.8230   -0.8207    5.5461 N   0  0  0  0  0  0  0  0  0  0  0  0
    1.7475   -2.1222    4.8720 C   0  0  2  0  0  0  0  0  0  0  0  0
    0.6677   -2.9600    5.5855 C   0  0  0  0  0  0  0  0  0  0  0  0
    3.0388   -2.8341    5.0373 C   0  0  1  0  0  0  0  0  0  0  0  0
    3.0897   -4.2142    4.5560 C   0  0  0  0  0  0  0  0  0  0  0  0
    4.2740   -4.9259    4.8237 C   0  0  0  0  0  0  0  0  0  0  0  0
    4.4192   -6.2182    4.4127 C   0  0  0  0  0  0  0  0  0  0  0  0
    3.4098   -6.8946    3.7132 C   0  0  0  0  0  0  0  0  0  0  0  0
    2.2492   -6.2047    3.4475 C   0  0  0  0  0  0  0  0  0  0  0  0
    2.1241   -4.8972    3.8716 C   0  0  0  0  0  0  0  0  0  0  0  0
    4.0978   -2.0971    4.4922 O   0  0  0  0  0  0  0  0  0  0  0  0
    2.4554    3.2413    4.3879 O   0  0  0  0  0  0  0  0  0  0  0  0
    3.3029    4.2125    4.9173 C   0  0  0  0  0  0  0  0  0  0  0  0
   -0.2211    5.1185    0.5020 O   0  0  0  0  0  0  0  0  0  0  0  0
   -0.8445    6.0142    1.3640 C   0  0  0  0  0  0  0  0  0  0  0  0
   -0.7142    3.8612   -2.1173 N   0  0  0  0  0  0  0  0  0  0  0  0
    0.2876    2.8869   -2.4097 C   0  0  0  0  0  0  0  0  0  0  0  0
   -0.9656    4.9708   -2.9817 C   0  0  0  0  0  0  0  0  0  0  0  0
   -1.9713    5.6984   -2.5904 O   0  0  0  0  0  0  0  0  0  0  0  0
   -0.3189    5.4157   -4.1870 C   0  0  1  0  0  0  0  0  0  0  0  0
   -0.2967    6.9350   -4.3066 C   0  0  0  0  0  0  0  0  0  0  0  0
    0.4305    7.5940   -3.1549 C   0  0  0  0  0  0  0  0  0  0  0  0
    0.4636    7.3105   -5.5533 C   0  0  0  0  0  0  0  0  0  0  0  0
    0.9482    4.8502   -4.4784 N   0  0  0  0  0  0  0  0  0  0  0  0
    1.2362    3.8370   -5.4188 C   0  0  0  0  0  0  0  0  0  0  0  0
    0.2905    3.3139   -6.1090 O   0  0  0  0  0  0  0  0  0  0  0  0
    2.6551    3.3836   -5.5959 C   0  0  1  0  0  0  0  0  0  0  0  0
    2.8676    2.5620   -6.8134 C   0  0  0  0  0  0  0  0  0  0  0  0
    1.9958    1.2933   -6.7393 C   0  0  0  0  0  0  0  0  0  0  0  0
    2.4452    3.2554   -8.1071 C   0  0  0  0  0  0  0  0  0  0  0  0
    3.6222    4.3954   -5.2992 N   0  0  0  0  0  0  0  0  0  0  0  0
    3.8435    5.5262   -6.1950 C   0  0  0  0  0  0  0  0  0  0  0  0
    4.4364    4.3405   -4.1056 C   0  0  0  0  0  0  0  0  0  0  0  0
    5.2788    5.2054   -3.8122 O   0  0  0  0  0  0  0  0  0  0  0  0
    4.2371    3.2726   -3.2931 O   0  0  0  0  0  0  0  0  0  0  0  0
    4.8429    2.9269   -2.0931 C   0  0  0  0  0  0  0  0  0  0  0  0
    4.2465    1.5992   -1.6335 C   0  0  0  0  0  0  0  0  0  0  0  0
    3.2061    1.5250   -0.7596 C   0  0  0  0  0  0  0  0  0  0  0  0
    2.6718    0.2654   -0.4748 C   0  0  0  0  0  0  0  0  0  0  0  0
    3.1867   -0.8902   -1.0694 C   0  0  0  0  0  0  0  0  0  0  0  0
    4.2233   -0.7383   -1.9273 C   0  0  0  0  0  0  0  0  0  0  0  0
    4.8036    0.4990   -2.2504 C   0  0  0  0  0  0  0  0  0  0  0  0
    2.5589   -2.1143   -0.7366 N   0  0  0  0  0  0  0  0  0  0  0  0
    2.9443   -3.3852   -1.2291 C   0  0  0  0  0  0  0  0  0  0  0  0
    3.9269   -3.5185   -2.0403 O   0  0  0  0  0  0  0  0  0  0  0  0
    2.2667   -4.6448   -0.8684 C   0  0  1  0  0  0  0  0  0  0  0  0
    3.1642   -5.7460   -0.4158 C   0  0  0  0  0  0  0  0  0  0  0  0
    4.1925   -6.1343   -1.4582 C   0  0  0  0  0  0  0  0  0  0  0  0
    3.6280   -6.5611   -2.7624 C   0  0  0  0  0  0  0  0  0  0  0  0
    4.7484   -6.8680   -3.6588 N   0  0  0  0  0  0  0  0  0  0  0  0
    4.3966   -7.2804   -4.9726 C   0  0  0  0  0  0  0  0  0  0  0  0
    3.1919   -7.3657   -5.3102 O   0  0  0  0  0  0  0  0  0  0  0  0
    5.3779   -7.6048   -5.9399 N   0  0  0  0  0  0  0  0  0  0  0  0
    1.1872   -4.4937    0.0884 N   0  0  0  0  0  0  0  0  0  0  0  0
   -0.0981   -4.8652   -0.3362 C   0  0  0  0  0  0  0  0  0  0  0  0
   -0.3654   -5.3225   -1.4703 O   0  0  0  0  0  0  0  0  0  0  0  0
   -1.2496   -4.7058    0.6304 C   0  0  1  0  0  0  0  0  0  0  0  0
   -1.2575   -3.2466    1.0757 C   0  0  0  0  0  0  0  0  0  0  0  0
   -2.2530   -3.0311    2.1709 C   0  0  0  0  0  0  0  0  0  0  0  0
   -1.7137   -2.3654   -0.0845 C   0  0  0  0  0  0  0  0  0  0  0  0
   -2.4000   -5.0957   -0.1005 N   0  0  0  0  0  0  0  0  0  0  0  0
   -3.7542   -4.8031   -0.0964 C   0  0  0  0  0  0  0  0  0  0  0  0
   -4.3295   -4.0141    0.6474 O   0  0  0  0  0  0  0  0  0  0  0  0
   -4.6010   -5.5209   -1.1067 C   0  0  0  0  0  0  0  0  0  0  0  0
   -6.0385   -5.1327   -1.1216 C   0  0  0  0  0  0  0  0  0  0  0  0
   -6.7956   -5.3961    0.1417 C   0  0  0  0  0  0  0  0  0  0  0  0
   -8.2222   -5.0339    0.1825 C   0  0  0  0  0  0  0  0  0  0  0  0
   -8.6994   -3.6566    0.0791 C   0  0  0  0  0  0  0  0  0  0  0  0
   -8.4272   -2.8428   -1.0528 N   0  0  0  0  0  0  0  0  0  0  0  0
   -9.2081   -2.8268   -2.2575 C   0  0  0  0  0  0  0  0  0  0  0  0
  -10.2040   -3.5666   -2.4838 O   0  0  0  0  0  0  0  0  0  0  0  0
   -8.6781   -1.8278   -3.1785 C   0  0  0  0  0  0  0  0  0  0  0  0
   -7.6305   -1.2416   -2.6062 C   0  0  0  0  0  0  0  0  0  0  0  0
   -7.4301   -1.8334   -1.2855 C   0  0  0  0  0  0  0  0  0  0  0  0
   -6.5387   -1.5455   -0.4388 O   0  0  0  0  0  0  0  0  0  0  0  0
   -5.7524    2.9567   -1.3461 H   0  0  0  0  0  0  0  0  0  0  0  0
   -4.8558    1.3472   -1.2749 H   0  0  0  0  0  0  0  0  0  0  0  0
   -5.6800    2.0075    0.1566 H   0  0  0  0  0  0  0  0  0  0  0  0
   -4.1403    4.1050   -0.2653 H   0  0  0  0  0  0  0  0  0  0  0  0
   -3.6184    2.6290    0.7405 H   0  0  0  0  0  0  0  0  0  0  0  0
   -3.0475    3.0597   -2.1914 H   0  0  0  0  0  0  0  0  0  0  0  0
   -2.4424    0.8997   -2.2002 H   0  0  0  0  0  0  0  0  0  0  0  0
   -3.0491    0.7820   -0.5562 H   0  0  0  0  0  0  0  0  0  0  0  0
   -1.3478    1.1082   -0.7346 H   0  0  0  0  0  0  0  0  0  0  0  0
   -2.1819    4.7875   -1.0581 H   0  0  0  0  0  0  0  0  0  0  0  0
   -1.8366    4.1856    1.1107 H   0  0  0  0  0  0  0  0  0  0  0  0
   -1.0085    2.0507    1.3839 H   0  0  0  0  0  0  0  0  0  0  0  0
    0.5800    2.3462    0.6036 H   0  0  0  0  0  0  0  0  0  0  0  0
   -2.2331    2.2143    3.1295 H   0  0  0  0  0  0  0  0  0  0  0  0
   -1.3164    1.3238    4.4146 H   0  0  0  0  0  0  0  0  0  0  0  0
   -2.5550    4.1277    4.5381 H   0  0  0  0  0  0  0  0  0  0  0  0
   -2.9694    2.6446    5.5272 H   0  0  0  0  0  0  0  0  0  0  0  0
   -0.9865    2.5829    6.5615 H   0  0  0  0  0  0  0  0  0  0  0  0
   -1.1541    4.4029    6.3753 H   0  0  0  0  0  0  0  0  0  0  0  0
    0.3483    4.5908    4.7271 H   0  0  0  0  0  0  0  0  0  0  0  0
    1.7892    3.6571    6.1909 H   0  0  0  0  0  0  0  0  0  0  0  0
    2.8330    1.6038    6.1276 H   0  0  0  0  0  0  0  0  0  0  0  0
    0.9780    2.2021    7.7978 H   0  0  0  0  0  0  0  0  0  0  0  0
    0.2023    0.6345    7.1526 H   0  0  0  0  0  0  0  0  0  0  0  0
    1.8034    0.6630    7.8263 H   0  0  0  0  0  0  0  0  0  0  0  0
    2.0931   -0.9001    6.5769 H   0  0  0  0  0  0  0  0  0  0  0  0
    1.4691   -2.0659    3.8227 H   0  0  0  0  0  0  0  0  0  0  0  0
    1.0810   -3.9177    5.9254 H   0  0  0  0  0  0  0  0  0  0  0  0
   -0.2179   -3.1206    4.9763 H   0  0  0  0  0  0  0  0  0  0  0  0
    0.3461   -2.4356    6.5183 H   0  0  0  0  0  0  0  0  0  0  0  0
    3.2744   -2.8917    6.1650 H   0  0  0  0  0  0  0  0  0  0  0  0
    5.0928   -4.4559    5.3650 H   0  0  0  0  0  0  0  0  0  0  0  0
    5.3614   -6.7168    4.6448 H   0  0  0  0  0  0  0  0  0  0  0  0
    3.5527   -7.9239    3.4037 H   0  0  0  0  0  0  0  0  0  0  0  0
    1.4594   -6.7250    2.9029 H   0  0  0  0  0  0  0  0  0  0  0  0
    1.2106   -4.3908    3.6264 H   0  0  0  0  0  0  0  0  0  0  0  0
    4.7688   -2.7042    4.0420 H   0  0  0  0  0  0  0  0  0  0  0  0
    3.8007    3.8854    5.8442 H   0  0  0  0  0  0  0  0  0  0  0  0
    4.0672    4.5439    4.2147 H   0  0  0  0  0  0  0  0  0  0  0  0
    2.7295    5.1451    5.2024 H   0  0  0  0  0  0  0  0  0  0  0  0
   -0.9402    5.5547    2.3490 H   0  0  0  0  0  0  0  0  0  0  0  0
   -1.7928    6.3843    0.9169 H   0  0  0  0  0  0  0  0  0  0  0  0
   -0.1756    6.9014    1.4590 H   0  0  0  0  0  0  0  0  0  0  0  0
    0.5061    2.1388   -1.6583 H   0  0  0  0  0  0  0  0  0  0  0  0
    1.2443    3.4029   -2.6124 H   0  0  0  0  0  0  0  0  0  0  0  0
   -0.0368    2.3964   -3.3793 H   0  0  0  0  0  0  0  0  0  0  0  0
   -1.0289    5.1009   -5.0348 H   0  0  0  0  0  0  0  0  0  0  0  0
   -1.3219    7.2891   -4.3846 H   0  0  0  0  0  0  0  0  0  0  0  0
    0.6587    8.6515   -3.4300 H   0  0  0  0  0  0  0  0  0  0  0  0
   -0.2588    7.6674   -2.2880 H   0  0  0  0  0  0  0  0  0  0  0  0
    1.3801    7.0844   -2.9208 H   0  0  0  0  0  0  0  0  0  0  0  0
    0.4364    8.4291   -5.6779 H   0  0  0  0  0  0  0  0  0  0  0  0
    0.0062    6.8867   -6.4518 H   0  0  0  0  0  0  0  0  0  0  0  0
    1.5408    7.0669   -5.4133 H   0  0  0  0  0  0  0  0  0  0  0  0
    1.7814    5.2371   -3.9454 H   0  0  0  0  0  0  0  0  0  0  0  0
    2.7584    2.6297   -4.7209 H   0  0  0  0  0  0  0  0  0  0  0  0
    3.8969    2.2371   -6.9550 H   0  0  0  0  0  0  0  0  0  0  0  0
    2.6077    0.4036   -6.9947 H   0  0  0  0  0  0  0  0  0  0  0  0
    1.1171    1.3646   -7.4002 H   0  0  0  0  0  0  0  0  0  0  0  0
    1.7056    1.1882   -5.6646 H   0  0  0  0  0  0  0  0  0  0  0  0
    2.0474    2.4912   -8.8313 H   0  0  0  0  0  0  0  0  0  0  0  0
    3.3479    3.7096   -8.5632 H   0  0  0  0  0  0  0  0  0  0  0  0
    1.6907    4.0080   -7.8807 H   0  0  0  0  0  0  0  0  0  0  0  0
    4.0750    6.4318   -5.5834 H   0  0  0  0  0  0  0  0  0  0  0  0
    2.9799    5.7559   -6.8341 H   0  0  0  0  0  0  0  0  0  0  0  0
    4.7702    5.3304   -6.7880 H   0  0  0  0  0  0  0  0  0  0  0  0
    4.5880    3.6548   -1.2927 H   0  0  0  0  0  0  0  0  0  0  0  0
    5.9260    2.8422   -2.1056 H   0  0  0  0  0  0  0  0  0  0  0  0
    2.8330    2.4243   -0.3202 H   0  0  0  0  0  0  0  0  0  0  0  0
    1.8352    0.2129    0.2289 H   0  0  0  0  0  0  0  0  0  0  0  0
    4.6855   -1.5756   -2.4205 H   0  0  0  0  0  0  0  0  0  0  0  0
    5.6384    0.5643   -2.9490 H   0  0  0  0  0  0  0  0  0  0  0  0
    1.7364   -2.1187   -0.0786 H   0  0  0  0  0  0  0  0  0  0  0  0
    1.7888   -5.0240   -1.8267 H   0  0  0  0  0  0  0  0  0  0  0  0
    3.7158   -5.4607    0.4851 H   0  0  0  0  0  0  0  0  0  0  0  0
    2.5775   -6.6513   -0.1743 H   0  0  0  0  0  0  0  0  0  0  0  0
    5.0305   -5.4598   -1.5683 H   0  0  0  0  0  0  0  0  0  0  0  0
    4.6593   -7.0779   -1.0156 H   0  0  0  0  0  0  0  0  0  0  0  0
    3.0770   -7.5372   -2.6165 H   0  0  0  0  0  0  0  0  0  0  0  0
    2.9087   -5.8945   -3.2416 H   0  0  0  0  0  0  0  0  0  0  0  0
    5.7460   -6.7927   -3.3488 H   0  0  0  0  0  0  0  0  0  0  0  0
    5.5330   -6.9093   -6.7260 H   0  0  0  0  0  0  0  0  0  0  0  0
    5.9600   -8.4608   -5.9488 H   0  0  0  0  0  0  0  0  0  0  0  0
    1.3069   -4.1377    1.0565 H   0  0  0  0  0  0  0  0  0  0  0  0
   -1.1248   -5.2650    1.5368 H   0  0  0  0  0  0  0  0  0  0  0  0
   -0.2503   -2.9206    1.3579 H   0  0  0  0  0  0  0  0  0  0  0  0
   -3.0272   -2.2848    1.9598 H   0  0  0  0  0  0  0  0  0  0  0  0
   -1.6842   -2.6903    3.1266 H   0  0  0  0  0  0  0  0  0  0  0  0
   -2.7013   -3.9946    2.4681 H   0  0  0  0  0  0  0  0  0  0  0  0
   -1.9203   -3.0422   -0.9374 H   0  0  0  0  0  0  0  0  0  0  0  0
   -2.5798   -1.7330    0.1802 H   0  0  0  0  0  0  0  0  0  0  0  0
   -0.8812   -1.6735   -0.3138 H   0  0  0  0  0  0  0  0  0  0  0  0
   -2.1451   -5.8587   -0.8768 H   0  0  0  0  0  0  0  0  0  0  0  0
   -4.0889   -5.3887   -2.0676 H   0  0  0  0  0  0  0  0  0  0  0  0
   -4.5547   -6.6312   -0.9088 H   0  0  0  0  0  0  0  0  0  0  0  0
   -6.2141   -4.1544   -1.5770 H   0  0  0  0  0  0  0  0  0  0  0  0
   -6.4933   -5.8472   -1.9118 H   0  0  0  0  0  0  0  0  0  0  0  0
   -6.7318   -6.5424    0.2570 H   0  0  0  0  0  0  0  0  0  0  0  0
   -6.2344   -5.0678    1.0540 H   0  0  0  0  0  0  0  0  0  0  0  0
   -8.7618   -5.7129   -0.5524 H   0  0  0  0  0  0  0  0  0  0  0  0
   -8.6398   -5.4262    1.1796 H   0  0  0  0  0  0  0  0  0  0  0  0
   -9.8498   -3.6572    0.1559 H   0  0  0  0  0  0  0  0  0  0  0  0
   -8.4475   -3.0867    1.0336 H   0  0  0  0  0  0  0  0  0  0  0  0
   -9.0801   -1.5990   -4.1811 H   0  0  0  0  0  0  0  0  0  0  0  0
   -7.0425   -0.4570   -3.0651 H   0  0  0  0  0  0  0  0  0  0  0  0
  1  2  1  0
  2  3  1  0
  3  4  1  0
  3  5  1  0
  5  6  1  0
  6  7  1  0
  7  8  1  0
  8  9  2  0
  8 10  1  0
 10 11  1  0
 11 12  1  0
 12 13  1  0
 13 14  1  0
 14 15  1  0
 15 16  1  0
 16 17  1  0
 16 18  1  0
 18 19  2  0
 18 20  1  0
 20 21  1  0
 21 22  1  0
 21 23  1  0
 23 24  1  0
 24 25  2  0
 25 26  1  0
 26 27  2  0
 27 28  1  0
 28 29  2  0
 23 30  1  0
 15 31  1  0
 31 32  1  0
  6 33  1  0
 33 34  1  0
  5 35  1  0
 35 36  1  0
 35 37  1  0
 37 38  2  0
 37 39  1  0
 39 40  1  0
 40 41  1  0
 40 42  1  0
 39 43  1  0
 43 44  1  0
 44 45  2  0
 44 46  1  0
 46 47  1  0
 47 48  1  0
 47 49  1  0
 46 50  1  0
 50 51  1  0
 50 52  1  0
 52 53  2  0
 52 54  1  0
 54 55  1  0
 55 56  1  0
 56 57  1  0
 57 58  2  0
 58 59  1  0
 59 60  2  0
 60 61  1  0
 59 62  1  0
 62 63  1  0
 63 64  2  0
 63 65  1  0
 65 66  1  0
 66 67  1  0
 67 68  1  0
 68 69  1  0
 69 70  1  0
 70 71  2  0
 70 72  1  0
 65 73  1  0
 73 74  1  0
 74 75  2  0
 74 76  1  0
 76 77  1  0
 77 78  1  0
 77 79  1  0
 76 80  1  0
 80 81  1  0
 81 82  2  0
 81 83  1  0
 83 84  1  0
 84 85  1  0
 85 86  1  0
 86 87  1  0
 87 88  1  0
 88 89  1  0
 89 90  2  0
 89 91  1  0
 91 92  2  0
 92 93  1  0
 93 94  2  0
 14 10  1  0
 29 24  1  0
 61 56  2  0
 93 88  1  0
  1 95  1  0
  1 96  1  0
  1 97  1  0
  2 98  1  0
  2 99  1  0
  3100  1  6
  4101  1  0
  4102  1  0
  4103  1  0
  5104  1  6
  6105  1  1
  7106  1  0
  7107  1  0
 11108  1  0
 11109  1  0
 12110  1  0
 12111  1  0
 13112  1  0
 13113  1  0
 14114  1  6
 15115  1  1
 16116  1  1
 17117  1  0
 17118  1  0
 17119  1  0
 20120  1  0
 21121  1  6
 22122  1  0
 22123  1  0
 22124  1  0
 23125  1  1
 25126  1  0
 26127  1  0
 27128  1  0
 28129  1  0
 29130  1  0
 30131  1  0
 32132  1  0
 32133  1  0
 32134  1  0
 34135  1  0
 34136  1  0
 34137  1  0
 36138  1  0
 36139  1  0
 36140  1  0
 39141  1  6
 40142  1  0
 41143  1  0
 41144  1  0
 41145  1  0
 42146  1  0
 42147  1  0
 42148  1  0
 43149  1  0
 46150  1  1
 47151  1  0
 48152  1  0
 48153  1  0
 48154  1  0
 49155  1  0
 49156  1  0
 49157  1  0
 51158  1  0
 51159  1  0
 51160  1  0
 55161  1  0
 55162  1  0
 57163  1  0
 58164  1  0
 60165  1  0
 61166  1  0
 62167  1  0
 65168  1  6
 66169  1  0
 66170  1  0
 67171  1  0
 67172  1  0
 68173  1  0
 68174  1  0
 69175  1  0
 72176  1  0
 72177  1  0
 73178  1  0
 76179  1  1
 77180  1  0
 78181  1  0
 78182  1  0
 78183  1  0
 79184  1  0
 79185  1  0
 79186  1  0
 80187  1  0
 83188  1  0
 83189  1  0
 84190  1  0
 84191  1  0
 85192  1  0
 85193  1  0
 86194  1  0
 86195  1  0
 87196  1  0
 87197  1  0
 91198  1  0
 92199  1  0
M  END
$$$$

     RDKit          3D

199202  0  0  0  0  0  0  0  0999 V2000
   -4.1046   -1.8641    5.3559 C   0  0  0  0  0  0  0  0  0  0  0  0
   -2.8900   -2.2046    4.5206 C   0  0  0  0  0  0  0  0  0  0  0  0
   -1.9013   -1.0330    4.6039 C   0  0  2  0  0  0  0  0  0  0  0  0
   -2.6040    0.1512    4.0743 C   0  0  0  0  0  0  0  0  0  0  0  0
   -0.5986   -1.4089    3.9270 C   0  0  1  0  0  0  0  0  0  0  0  0
    0.3613   -0.2739    4.0060 C   0  0  1  0  0  0  0  0  0  0  0  0
    0.2739    0.6318    2.7941 C   0  0  0  0  0  0  0  0  0  0  0  0
    1.2091    1.8148    2.9186 C   0  0  0  0  0  0  0  0  0  0  0  0
    0.6790    2.7647    3.5927 O   0  0  0  0  0  0  0  0  0  0  0  0
    2.4995    1.8784    2.3698 N   0  0  0  0  0  0  0  0  0  0  0  0
    3.0566    0.7425    1.5982 C   0  0  0  0  0  0  0  0  0  0  0  0
    4.4551    1.1409    1.2591 C   0  0  0  0  0  0  0  0  0  0  0  0
    4.3338    2.6769    1.2306 C   0  0  0  0  0  0  0  0  0  0  0  0
    3.4937    2.9240    2.4167 C   0  0  1  0  0  0  0  0  0  0  0  0
    3.0007    4.3126    2.6284 C   0  0  1  0  0  0  0  0  0  0  0  0
    2.3148    4.9502    1.4686 C   0  0  1  0  0  0  0  0  0  0  0  0
    1.8372    6.3300    2.0145 C   0  0  0  0  0  0  0  0  0  0  0  0
    3.2979    5.4288    0.4039 C   0  0  0  0  0  0  0  0  0  0  0  0
    4.4878    5.4969    0.7954 O   0  0  0  0  0  0  0  0  0  0  0  0
    2.8533    5.7561   -0.8943 N   0  0  0  0  0  0  0  0  0  0  0  0
    3.6510    6.2338   -1.9766 C   0  0  2  0  0  0  0  0  0  0  0  0
    3.0915    7.6266   -2.3180 C   0  0  0  0  0  0  0  0  0  0  0  0
    3.5574    5.4286   -3.2145 C   0  0  1  0  0  0  0  0  0  0  0  0
    4.2912    4.1743   -3.2908 C   0  0  0  0  0  0  0  0  0  0  0  0
    5.0877    3.6170   -2.3244 C   0  0  0  0  0  0  0  0  0  0  0  0
    5.7747    2.4302   -2.4751 C   0  0  0  0  0  0  0  0  0  0  0  0
    5.6760    1.7271   -3.6685 C   0  0  0  0  0  0  0  0  0  0  0  0
    4.8772    2.2751   -4.6471 C   0  0  0  0  0  0  0  0  0  0  0  0
    4.1966    3.4581   -4.4913 C   0  0  0  0  0  0  0  0  0  0  0  0
    2.2653    5.2838   -3.7198 O   0  0  0  0  0  0  0  0  0  0  0  0
    2.3436    4.5597    3.7893 O   0  0  0  0  0  0  0  0  0  0  0  0
    3.0523    5.3892    4.6750 C   0  0  0  0  0  0  0  0  0  0  0  0
    0.6317    0.3231    5.1883 O   0  0  0  0  0  0  0  0  0  0  0  0
    1.9546    0.2593    5.6242 C   0  0  0  0  0  0  0  0  0  0  0  0
   -0.1317   -2.6236    4.6450 N   0  0  0  0  0  0  0  0  0  0  0  0
    0.1673   -2.5897    6.0584 C   0  0  0  0  0  0  0  0  0  0  0  0
   -0.0682   -3.7891    3.8409 C   0  0  0  0  0  0  0  0  0  0  0  0
   -0.5367   -3.6520    2.6531 O   0  0  0  0  0  0  0  0  0  0  0  0
    0.4628   -5.0973    4.1881 C   0  0  1  0  0  0  0  0  0  0  0  0
    0.2389   -5.6609    5.5360 C   0  0  0  0  0  0  0  0  0  0  0  0
   -1.2067   -5.8632    5.9267 C   0  0  0  0  0  0  0  0  0  0  0  0
    0.9738   -7.0264    5.5895 C   0  0  0  0  0  0  0  0  0  0  0  0
    0.2969   -6.1113    3.1330 N   0  0  0  0  0  0  0  0  0  0  0  0
    1.0074   -5.9220    1.9276 C   0  0  0  0  0  0  0  0  0  0  0  0
    1.7091   -4.8731    1.8496 O   0  0  0  0  0  0  0  0  0  0  0  0
    1.0163   -6.8164    0.7566 C   0  0  1  0  0  0  0  0  0  0  0  0
    0.4029   -8.1371    0.8995 C   0  0  0  0  0  0  0  0  0  0  0  0
   -1.0508   -8.2214    1.2315 C   0  0  0  0  0  0  0  0  0  0  0  0
    0.7557   -9.0665   -0.2738 C   0  0  0  0  0  0  0  0  0  0  0  0
    0.6629   -6.0867   -0.4629 N   0  0  0  0  0  0  0  0  0  0  0  0
   -0.7480   -5.7532   -0.6238 C   0  0  0  0  0  0  0  0  0  0  0  0
    1.5975   -5.6991   -1.4511 C   0  0  0  0  0  0  0  0  0  0  0  0
    1.1354   -5.1337   -2.4747 O   0  0  0  0  0  0  0  0  0  0  0  0
    2.9563   -5.8845   -1.3668 O   0  0  0  0  0  0  0  0  0  0  0  0
    3.8547   -5.4230   -2.3886 C   0  0  0  0  0  0  0  0  0  0  0  0
    3.6128   -3.9358   -2.5232 C   0  0  0  0  0  0  0  0  0  0  0  0
    2.9014   -3.4148   -3.5798 C   0  0  0  0  0  0  0  0  0  0  0  0
    2.5648   -2.0818   -3.5837 C   0  0  0  0  0  0  0  0  0  0  0  0
    2.9787   -1.3259   -2.4851 C   0  0  0  0  0  0  0  0  0  0  0  0
    3.6915   -1.8526   -1.4390 C   0  0  0  0  0  0  0  0  0  0  0  0
    4.0297   -3.1879   -1.4340 C   0  0  0  0  0  0  0  0  0  0  0  0
    2.5303    0.0425   -2.5133 N   0  0  0  0  0  0  0  0  0  0  0  0
    1.2346    0.2276   -1.9136 C   0  0  0  0  0  0  0  0  0  0  0  0
    0.6578   -0.7801   -1.4397 O   0  0  0  0  0  0  0  0  0  0  0  0
    0.5527    1.5232   -1.8292 C   0  0  1  0  0  0  0  0  0  0  0  0
    0.3894    2.0410   -3.2608 C   0  0  0  0  0  0  0  0  0  0  0  0
   -0.4396    1.0771   -4.0820 C   0  0  0  0  0  0  0  0  0  0  0  0
   -0.5547    1.6769   -5.4743 C   0  0  0  0  0  0  0  0  0  0  0  0
   -1.3480    0.8226   -6.3319 N   0  0  0  0  0  0  0  0  0  0  0  0
   -1.5537    1.2522   -7.6798 C   0  0  0  0  0  0  0  0  0  0  0  0
   -1.0622    2.3345   -8.1041 O   0  0  0  0  0  0  0  0  0  0  0  0
   -2.3360    0.4036   -8.5135 N   0  0  0  0  0  0  0  0  0  0  0  0
   -0.7542    1.3592   -1.2235 N   0  0  0  0  0  0  0  0  0  0  0  0
   -1.3488    2.2501   -0.3115 C   0  0  0  0  0  0  0  0  0  0  0  0
   -0.7878    3.3011    0.0800 O   0  0  0  0  0  0  0  0  0  0  0  0
   -2.6908    1.9477    0.2065 C   0  0  1  0  0  0  0  0  0  0  0  0
   -3.6906    3.0133   -0.2637 C   0  0  0  0  0  0  0  0  0  0  0  0
   -3.2306    4.3822    0.2563 C   0  0  0  0  0  0  0  0  0  0  0  0
   -5.0087    2.7506    0.4116 C   0  0  0  0  0  0  0  0  0  0  0  0
   -3.1134    0.6540   -0.1753 N   0  0  0  0  0  0  0  0  0  0  0  0
   -4.0945    0.2534   -1.1593 C   0  0  0  0  0  0  0  0  0  0  0  0
   -4.6312    1.1570   -1.7857 O   0  0  0  0  0  0  0  0  0  0  0  0
   -4.3006   -1.1839   -1.2623 C   0  0  0  0  0  0  0  0  0  0  0  0
   -5.1515   -1.7299   -2.2900 C   0  0  0  0  0  0  0  0  0  0  0  0
   -6.5732   -1.4853   -2.4802 C   0  0  0  0  0  0  0  0  0  0  0  0
   -7.0605   -0.1429   -2.8889 C   0  0  0  0  0  0  0  0  0  0  0  0
   -6.4775    0.2499   -4.2347 C   0  0  0  0  0  0  0  0  0  0  0  0
   -6.9089    1.5187   -4.7137 N   0  0  0  0  0  0  0  0  0  0  0  0
   -8.0990    1.6843   -5.5173 C   0  0  0  0  0  0  0  0  0  0  0  0
   -8.8877    0.7455   -5.8680 O   0  0  0  0  0  0  0  0  0  0  0  0
   -8.2419    3.1098   -5.8568 C   0  0  0  0  0  0  0  0  0  0  0  0
   -7.2348    3.7668   -5.3135 C   0  0  0  0  0  0  0  0  0  0  0  0
   -6.3759    2.8263   -4.5910 C   0  0  0  0  0  0  0  0  0  0  0  0
   -5.3528    3.1539   -3.9794 O   0  0  0  0  0  0  0  0  0  0  0  0
   -4.5384   -2.7986    5.8059 H   0  0  0  0  0  0  0  0  0  0  0  0
   -3.8810   -1.1089    6.1400 H   0  0  0  0  0  0  0  0  0  0  0  0
   -4.8939   -1.3966    4.6974 H   0  0  0  0  0  0  0  0  0  0  0  0
   -2.4457   -3.1138    4.9201 H   0  0  0  0  0  0  0  0  0  0  0  0
   -3.2452   -2.2936    3.4630 H   0  0  0  0  0  0  0  0  0  0  0  0
   -1.7636   -0.8776    5.7005 H   0  0  0  0  0  0  0  0  0  0  0  0
   -3.6613    0.2133    4.5255 H   0  0  0  0  0  0  0  0  0  0  0  0
   -2.8194    0.1564    2.9883 H   0  0  0  0  0  0  0  0  0  0  0  0
   -2.1437    1.1369    4.3237 H   0  0  0  0  0  0  0  0  0  0  0  0
   -0.8280   -1.7023    2.8860 H   0  0  0  0  0  0  0  0  0  0  0  0
    1.4056   -0.8340    3.8077 H   0  0  0  0  0  0  0  0  0  0  0  0
   -0.7100    1.0167    2.5405 H   0  0  0  0  0  0  0  0  0  0  0  0
    0.5826    0.0080    1.9138 H   0  0  0  0  0  0  0  0  0  0  0  0
    2.5015    0.5310    0.6885 H   0  0  0  0  0  0  0  0  0  0  0  0
    3.0170   -0.1441    2.2648 H   0  0  0  0  0  0  0  0  0  0  0  0
    5.0917    0.9452    2.1557 H   0  0  0  0  0  0  0  0  0  0  0  0
    4.8655    0.7618    0.3287 H   0  0  0  0  0  0  0  0  0  0  0  0
    5.3806    3.0611    1.3219 H   0  0  0  0  0  0  0  0  0  0  0  0
    3.8576    2.8827    0.2623 H   0  0  0  0  0  0  0  0  0  0  0  0
    4.1318    2.6653    3.3195 H   0  0  0  0  0  0  0  0  0  0  0  0
    3.9788    4.9208    2.7301 H   0  0  0  0  0  0  0  0  0  0  0  0
    1.5313    4.3747    1.0277 H   0  0  0  0  0  0  0  0  0  0  0  0
    1.1013    6.7607    1.2873 H   0  0  0  0  0  0  0  0  0  0  0  0
    1.3134    6.2378    2.9587 H   0  0  0  0  0  0  0  0  0  0  0  0
    2.6749    7.0452    2.0674 H   0  0  0  0  0  0  0  0  0  0  0  0
    1.8206    5.6302   -1.0791 H   0  0  0  0  0  0  0  0  0  0  0  0
    4.7315    6.3365   -1.6961 H   0  0  0  0  0  0  0  0  0  0  0  0
    3.5155    8.3843   -1.6332 H   0  0  0  0  0  0  0  0  0  0  0  0
    1.9689    7.5790   -2.2666 H   0  0  0  0  0  0  0  0  0  0  0  0
    3.3390    7.9242   -3.3558 H   0  0  0  0  0  0  0  0  0  0  0  0
    4.0536    6.0770   -4.0504 H   0  0  0  0  0  0  0  0  0  0  0  0
    5.1925    4.1297   -1.3948 H   0  0  0  0  0  0  0  0  0  0  0  0
    6.3863    2.0581   -1.6536 H   0  0  0  0  0  0  0  0  0  0  0  0
    6.2018    0.7920   -3.8213 H   0  0  0  0  0  0  0  0  0  0  0  0
    4.7938    1.7376   -5.5787 H   0  0  0  0  0  0  0  0  0  0  0  0
    3.6002    3.8080   -5.3035 H   0  0  0  0  0  0  0  0  0  0  0  0
    2.2508    5.2248   -4.7174 H   0  0  0  0  0  0  0  0  0  0  0  0
    3.2912    6.3703    4.2707 H   0  0  0  0  0  0  0  0  0  0  0  0
    2.3801    5.5675    5.5642 H   0  0  0  0  0  0  0  0  0  0  0  0
    3.9309    4.8485    5.0988 H   0  0  0  0  0  0  0  0  0  0  0  0
    2.6380    0.7769    4.9019 H   0  0  0  0  0  0  0  0  0  0  0  0
    2.1003    0.6118    6.6582 H   0  0  0  0  0  0  0  0  0  0  0  0
    2.2948   -0.8002    5.5985 H   0  0  0  0  0  0  0  0  0  0  0  0
   -0.0038   -1.5368    6.4361 H   0  0  0  0  0  0  0  0  0  0  0  0
    1.2192   -2.7971    6.3105 H   0  0  0  0  0  0  0  0  0  0  0  0
   -0.5765   -3.1683    6.6590 H   0  0  0  0  0  0  0  0  0  0  0  0
    1.6053   -4.8989    4.1112 H   0  0  0  0  0  0  0  0  0  0  0  0
    0.7200   -5.1033    6.3631 H   0  0  0  0  0  0  0  0  0  0  0  0
   -1.9246   -5.5050    5.1693 H   0  0  0  0  0  0  0  0  0  0  0  0
   -1.4623   -5.3610    6.8824 H   0  0  0  0  0  0  0  0  0  0  0  0
   -1.4453   -6.9335    6.0997 H   0  0  0  0  0  0  0  0  0  0  0  0
    0.9918   -7.4031    6.6350 H   0  0  0  0  0  0  0  0  0  0  0  0
    2.0245   -6.8989    5.2801 H   0  0  0  0  0  0  0  0  0  0  0  0
    0.3885   -7.7333    4.9995 H   0  0  0  0  0  0  0  0  0  0  0  0
   -0.3136   -6.9351    3.2687 H   0  0  0  0  0  0  0  0  0  0  0  0
    2.1482   -7.0143    0.5636 H   0  0  0  0  0  0  0  0  0  0  0  0
    0.9284   -8.6411    1.7746 H   0  0  0  0  0  0  0  0  0  0  0  0
   -1.5489   -7.2485    1.3433 H   0  0  0  0  0  0  0  0  0  0  0  0
   -1.6040   -8.8552    0.4597 H   0  0  0  0  0  0  0  0  0  0  0  0
   -1.2664   -8.7996    2.1770 H   0  0  0  0  0  0  0  0  0  0  0  0
    1.7764   -8.8459   -0.6518 H   0  0  0  0  0  0  0  0  0  0  0  0
   -0.0099   -8.9875   -1.0811 H   0  0  0  0  0  0  0  0  0  0  0  0
    0.7751  -10.1322    0.0264 H   0  0  0  0  0  0  0  0  0  0  0  0
   -0.8677   -5.0182   -1.4833 H   0  0  0  0  0  0  0  0  0  0  0  0
   -1.3668   -6.6128   -0.9479 H   0  0  0  0  0  0  0  0  0  0  0  0
   -1.1637   -5.1871    0.2356 H   0  0  0  0  0  0  0  0  0  0  0  0
    3.6334   -5.9778   -3.3063 H   0  0  0  0  0  0  0  0  0  0  0  0
    4.8965   -5.5595   -2.1041 H   0  0  0  0  0  0  0  0  0  0  0  0
    2.5998   -4.0316   -4.4320 H   0  0  0  0  0  0  0  0  0  0  0  0
    2.0062   -1.6573   -4.4043 H   0  0  0  0  0  0  0  0  0  0  0  0
    3.9925   -1.2362   -0.6134 H   0  0  0  0  0  0  0  0  0  0  0  0
    4.5897   -3.6059   -0.6155 H   0  0  0  0  0  0  0  0  0  0  0  0
    3.0561    0.8268   -2.9129 H   0  0  0  0  0  0  0  0  0  0  0  0
    1.1940    2.2629   -1.3365 H   0  0  0  0  0  0  0  0  0  0  0  0
    1.3636    2.1514   -3.7305 H   0  0  0  0  0  0  0  0  0  0  0  0
   -0.1328    2.9983   -3.2371 H   0  0  0  0  0  0  0  0  0  0  0  0
    0.0184    0.0701   -4.1196 H   0  0  0  0  0  0  0  0  0  0  0  0
   -1.4609    0.9598   -3.7013 H   0  0  0  0  0  0  0  0  0  0  0  0
   -1.1051    2.6439   -5.3621 H   0  0  0  0  0  0  0  0  0  0  0  0
    0.4743    1.8486   -5.8501 H   0  0  0  0  0  0  0  0  0  0  0  0
   -1.7294   -0.0443   -5.9450 H   0  0  0  0  0  0  0  0  0  0  0  0
   -2.2130   -0.6364   -8.5570 H   0  0  0  0  0  0  0  0  0  0  0  0
   -3.0926    0.7943   -9.1381 H   0  0  0  0  0  0  0  0  0  0  0  0
   -1.2820    0.4989   -1.5008 H   0  0  0  0  0  0  0  0  0  0  0  0
   -2.7096    2.0264    1.3420 H   0  0  0  0  0  0  0  0  0  0  0  0
   -3.6844    3.0871   -1.3363 H   0  0  0  0  0  0  0  0  0  0  0  0
   -2.5052    4.8579   -0.4287 H   0  0  0  0  0  0  0  0  0  0  0  0
   -4.1435    5.0070    0.2450 H   0  0  0  0  0  0  0  0  0  0  0  0
   -2.8818    4.3013    1.2945 H   0  0  0  0  0  0  0  0  0  0  0  0
   -5.8972    2.9543   -0.2257 H   0  0  0  0  0  0  0  0  0  0  0  0
   -5.1587    3.4309    1.3003 H   0  0  0  0  0  0  0  0  0  0  0  0
   -5.0012    1.7194    0.8362 H   0  0  0  0  0  0  0  0  0  0  0  0
   -2.6333   -0.1586    0.3407 H   0  0  0  0  0  0  0  0  0  0  0  0
   -4.5987   -1.5652   -0.2119 H   0  0  0  0  0  0  0  0  0  0  0  0
   -3.2455   -1.6498   -1.3604 H   0  0  0  0  0  0  0  0  0  0  0  0
   -4.6643   -1.5109   -3.3177 H   0  0  0  0  0  0  0  0  0  0  0  0
   -4.9766   -2.8732   -2.2748 H   0  0  0  0  0  0  0  0  0  0  0  0
   -6.9702   -2.2859   -3.1866 H   0  0  0  0  0  0  0  0  0  0  0  0
   -7.1515   -1.7679   -1.5195 H   0  0  0  0  0  0  0  0  0  0  0  0
   -8.2095   -0.2700   -3.0743 H   0  0  0  0  0  0  0  0  0  0  0  0
   -7.0313    0.6082   -2.1254 H   0  0  0  0  0  0  0  0  0  0  0  0
   -5.3703    0.1748   -4.1985 H   0  0  0  0  0  0  0  0  0  0  0  0
   -6.7837   -0.5351   -4.9817 H   0  0  0  0  0  0  0  0  0  0  0  0
   -9.0430    3.5435   -6.4579 H   0  0  0  0  0  0  0  0  0  0  0  0
   -7.0682    4.8281   -5.3902 H   0  0  0  0  0  0  0  0  0  0  0  0
  1  2  1  0
  2  3  1  0
  3  4  1  0
  3  5  1  0
  5  6  1  0
  6  7  1  0
  7  8  1  0
  8  9  2  0
  8 10  1  0
 10 11  1  0
 11 12  1  0
 12 13  1  0
 13 14  1  0
 14 15  1  0
 15 16  1  0
 16 17  1  0
 16 18  1  0
 18 19  2  0
 18 20  1  0
 20 21  1  0
 21 22  1  0
 21 23  1  0
 23 24  1  0
 24 25  2  0
 25 26  1  0
 26 27  2  0
 27 28  1  0
 28 29  2  0
 23 30  1  0
 15 31  1  0
 31 32  1  0
  6 33  1  0
 33 34  1  0
  5 35  1  0
 35 36  1  0
 35 37  1  0
 37 38  2  0
 37 39  1  0
 39 40  1  0
 40 41  1  0
 40 42  1  0
 39 43  1  0
 43 44  1  0
 44 45  2  0
 44 46  1  0
 46 47  1  0
 47 48  1  0
 47 49  1  0
 46 50  1  0
 50 51  1  0
 50 52  1  0
 52 53  2  0
 52 54  1  0
 54 55  1  0
 55 56  1  0
 56 57  1  0
 57 58  2  0
 58 59  1  0
 59 60  2  0
 60 61  1  0
 59 62  1  0
 62 63  1  0
 63 64  2  0
 63 65  1  0
 65 66  1  0
 66 67  1  0
 67 68  1  0
 68 69  1  0
 69 70  1  0
 70 71  2  0
 70 72  1  0
 65 73  1  0
 73 74  1  0
 74 75  2  0
 74 76  1  0
 76 77  1  0
 77 78  1  0
 77 79  1  0
 76 80  1  0
 80 81  1  0
 81 82  2  0
 81 83  1  0
 83 84  1  0
 84 85  1  0
 85 86  1  0
 86 87  1  0
 87 88  1  0
 88 89  1  0
 89 90  2  0
 89 91  1  0
 91 92  2  0
 92 93  1  0
 93 94  2  0
 14 10  1  0
 29 24  1  0
 61 56  2  0
 93 88  1  0
  1 95  1  0
  1 96  1  0
  1 97  1  0
  2 98  1  0
  2 99  1  0
  3100  1  1
  4101  1  0
  4102  1  0
  4103  1  0
  5104  1  6
  6105  1  6
  7106  1  0
  7107  1  0
 11108  1  0
 11109  1  0
 12110  1  0
 12111  1  0
 13112  1  0
 13113  1  0
 14114  1  1
 15115  1  1
 16116  1  6
 17117  1  0
 17118  1  0
 17119  1  0
 20120  1  0
 21121  1  1
 22122  1  0
 22123  1  0
 22124  1  0
 23125  1  6
 25126  1  0
 26127  1  0
 27128  1  0
 28129  1  0
 29130  1  0
 30131  1  0
 32132  1  0
 32133  1  0
 32134  1  0
 34135  1  0
 34136  1  0
 34137  1  0
 36138  1  0
 36139  1  0
 36140  1  0
 39141  1  1
 40142  1  0
 41143  1  0
 41144  1  0
 41145  1  0
 42146  1  0
 42147  1  0
 42148  1  0
 43149  1  0
 46150  1  6
 47151  1  0
 48152  1  0
 48153  1  0
 48154  1  0
 49155  1  0
 49156  1  0
 49157  1  0
 51158  1  0
 51159  1  0
 51160  1  0
 55161  1  0
 55162  1  0
 57163  1  0
 58164  1  0
 60165  1  0
 61166  1  0
 62167  1  0
 65168  1  1
 66169  1  0
 66170  1  0
 67171  1  0
 67172  1  0
 68173  1  0
 68174  1  0
 69175  1  0
 72176  1  0
 72177  1  0
 73178  1  0
 76179  1  1
 77180  1  0
 78181  1  0
 78182  1  0
 78183  1  0
 79184  1  0
 79185  1  0
 79186  1  0
 80187  1  0
 83188  1  0
 83189  1  0
 84190  1  0
 84191  1  0
 85192  1  0
 85193  1  0
 86194  1  0
 86195  1  0
 87196  1  0
 87197  1  0
 91198  1  0
 92199  1  0
M  END
$$$$

     RDKit          3D

199202  0  0  0  0  0  0  0  0999 V2000
    4.6492   -1.3829    0.1731 C   0  0  0  0  0  0  0  0  0  0  0  0
    3.3159   -1.9055   -0.1988 C   0  0  0  0  0  0  0  0  0  0  0  0
    2.6317   -1.4908   -1.4076 C   0  0  2  0  0  0  0  0  0  0  0  0
    3.5030   -1.8319   -2.6171 C   0  0  0  0  0  0  0  0  0  0  0  0
    1.8140   -0.3657   -1.6718 C   0  0  1  0  0  0  0  0  0  0  0  0
    0.5181   -0.2147   -0.7970 C   0  0  1  0  0  0  0  0  0  0  0  0
   -0.3398   -1.4450   -0.8589 C   0  0  0  0  0  0  0  0  0  0  0  0
   -1.6012   -1.2780   -0.0662 C   0  0  0  0  0  0  0  0  0  0  0  0
   -1.6182   -0.8629    1.1178 O   0  0  0  0  0  0  0  0  0  0  0  0
   -2.8746   -1.5916   -0.6643 N   0  0  0  0  0  0  0  0  0  0  0  0
   -4.1582   -1.3874    0.0039 C   0  0  0  0  0  0  0  0  0  0  0  0
   -5.1729   -2.0238   -0.8936 C   0  0  0  0  0  0  0  0  0  0  0  0
   -4.3604   -2.9518   -1.8131 C   0  0  0  0  0  0  0  0  0  0  0  0
   -3.1023   -2.1719   -2.0008 C   0  0  1  0  0  0  0  0  0  0  0  0
   -3.1852   -1.1249   -3.0699 C   0  0  1  0  0  0  0  0  0  0  0  0
   -3.3142   -1.6641   -4.4625 C   0  0  1  0  0  0  0  0  0  0  0  0
   -3.3604   -0.5207   -5.4663 C   0  0  0  0  0  0  0  0  0  0  0  0
   -2.2308   -2.5787   -4.8371 C   0  0  0  0  0  0  0  0  0  0  0  0
   -1.3193   -2.1296   -5.6228 O   0  0  0  0  0  0  0  0  0  0  0  0
   -2.0916   -3.9181   -4.4236 N   0  0  0  0  0  0  0  0  0  0  0  0
   -1.0593   -4.8337   -4.7563 C   0  0  2  0  0  0  0  0  0  0  0  0
   -1.6500   -5.9243   -5.6801 C   0  0  0  0  0  0  0  0  0  0  0  0
   -0.4710   -5.6058   -3.5863 C   0  0  1  0  0  0  0  0  0  0  0  0
    0.5806   -6.4753   -4.1731 C   0  0  0  0  0  0  0  0  0  0  0  0
    1.8189   -6.0069   -4.5073 C   0  0  0  0  0  0  0  0  0  0  0  0
    2.8283   -6.7718   -5.0694 C   0  0  0  0  0  0  0  0  0  0  0  0
    2.5516   -8.1175   -5.3063 C   0  0  0  0  0  0  0  0  0  0  0  0
    1.2969   -8.6480   -4.9814 C   0  0  0  0  0  0  0  0  0  0  0  0
    0.3322   -7.8181   -4.4207 C   0  0  0  0  0  0  0  0  0  0  0  0
    0.0720   -4.8238   -2.6009 O   0  0  0  0  0  0  0  0  0  0  0  0
   -4.2226   -0.2200   -2.7930 O   0  0  0  0  0  0  0  0  0  0  0  0
   -3.8270    1.0696   -2.5796 C   0  0  0  0  0  0  0  0  0  0  0  0
    0.6490    0.2759    0.4202 O   0  0  0  0  0  0  0  0  0  0  0  0
    0.1943    1.4813    0.8247 C   0  0  0  0  0  0  0  0  0  0  0  0
    2.2160    1.0026   -1.8951 N   0  0  0  0  0  0  0  0  0  0  0  0
    3.0863    1.6083   -0.9318 C   0  0  0  0  0  0  0  0  0  0  0  0
    1.6701    1.6015   -3.0636 C   0  0  0  0  0  0  0  0  0  0  0  0
    0.9057    0.7325   -3.7196 O   0  0  0  0  0  0  0  0  0  0  0  0
    1.7173    2.8783   -3.6937 C   0  0  1  0  0  0  0  0  0  0  0  0
    0.3980    3.6241   -3.3916 C   0  0  0  0  0  0  0  0  0  0  0  0
   -0.6632    2.6924   -3.9260 C   0  0  0  0  0  0  0  0  0  0  0  0
    0.1375    3.9441   -1.9840 C   0  0  0  0  0  0  0  0  0  0  0  0
    2.8462    3.6813   -3.3901 N   0  0  0  0  0  0  0  0  0  0  0  0
    3.1602    4.8147   -4.1889 C   0  0  0  0  0  0  0  0  0  0  0  0
    2.3388    5.0309   -5.2055 O   0  0  0  0  0  0  0  0  0  0  0  0
    4.2408    5.7573   -4.0789 C   0  0  1  0  0  0  0  0  0  0  0  0
    3.8387    7.0909   -4.8318 C   0  0  0  0  0  0  0  0  0  0  0  0
    4.9826    8.0692   -4.7656 C   0  0  0  0  0  0  0  0  0  0  0  0
    2.6024    7.6916   -4.2695 C   0  0  0  0  0  0  0  0  0  0  0  0
    4.8603    6.0339   -2.8375 N   0  0  0  0  0  0  0  0  0  0  0  0
    6.3682    6.0710   -2.8261 C   0  0  0  0  0  0  0  0  0  0  0  0
    4.3154    6.2312   -1.5760 C   0  0  0  0  0  0  0  0  0  0  0  0
    5.1164    6.7766   -0.6914 O   0  0  0  0  0  0  0  0  0  0  0  0
    3.0771    5.9545   -1.0317 O   0  0  0  0  0  0  0  0  0  0  0  0
    2.9452    6.3790    0.3556 C   0  0  0  0  0  0  0  0  0  0  0  0
    1.7891    5.8520    1.0519 C   0  0  0  0  0  0  0  0  0  0  0  0
    2.0957    4.8041    1.9765 C   0  0  0  0  0  0  0  0  0  0  0  0
    1.1328    4.1846    2.6971 C   0  0  0  0  0  0  0  0  0  0  0  0
   -0.2249    4.5126    2.6008 C   0  0  0  0  0  0  0  0  0  0  0  0
   -0.5287    5.5126    1.7220 C   0  0  0  0  0  0  0  0  0  0  0  0
    0.4751    6.1576    0.9706 C   0  0  0  0  0  0  0  0  0  0  0  0
   -1.0948    3.7955    3.4189 N   0  0  0  0  0  0  0  0  0  0  0  0
   -2.5147    3.8432    3.4685 C   0  0  0  0  0  0  0  0  0  0  0  0
   -3.1265    4.6011    2.6831 O   0  0  0  0  0  0  0  0  0  0  0  0
   -3.2398    3.0366    4.4242 C   0  0  1  0  0  0  0  0  0  0  0  0
   -4.3189    2.1929    3.7513 C   0  0  0  0  0  0  0  0  0  0  0  0
   -5.1224    1.4670    4.7907 C   0  0  0  0  0  0  0  0  0  0  0  0
   -6.1769    0.5374    4.3202 C   0  0  0  0  0  0  0  0  0  0  0  0
   -5.7194   -0.6105    3.5962 N   0  0  0  0  0  0  0  0  0  0  0  0
   -6.6964   -1.5249    3.1282 C   0  0  0  0  0  0  0  0  0  0  0  0
   -7.9040   -1.2179    3.3881 O   0  0  0  0  0  0  0  0  0  0  0  0
   -6.4229   -2.7013    2.4336 N   0  0  0  0  0  0  0  0  0  0  0  0
   -2.3237    2.1861    5.1837 N   0  0  0  0  0  0  0  0  0  0  0  0
   -2.1147    0.8303    5.0427 C   0  0  0  0  0  0  0  0  0  0  0  0
   -2.7628    0.1831    4.1303 O   0  0  0  0  0  0  0  0  0  0  0  0
   -1.1955   -0.0425    5.8165 C   0  0  1  0  0  0  0  0  0  0  0  0
   -1.4252   -0.0582    7.2910 C   0  0  0  0  0  0  0  0  0  0  0  0
   -1.2511    1.2359    8.0082 C   0  0  0  0  0  0  0  0  0  0  0  0
   -0.4327   -1.0632    7.8789 C   0  0  0  0  0  0  0  0  0  0  0  0
   -1.2791   -1.4147    5.3469 N   0  0  0  0  0  0  0  0  0  0  0  0
   -0.1951   -2.1065    4.7057 C   0  0  0  0  0  0  0  0  0  0  0  0
    0.8960   -1.5287    4.5173 O   0  0  0  0  0  0  0  0  0  0  0  0
   -0.4851   -3.5016    4.3058 C   0  0  0  0  0  0  0  0  0  0  0  0
    0.6243   -4.2421    3.6607 C   0  0  0  0  0  0  0  0  0  0  0  0
    1.8865   -4.3780    4.4794 C   0  0  0  0  0  0  0  0  0  0  0  0
    2.9197   -5.1868    3.7258 C   0  0  0  0  0  0  0  0  0  0  0  0
    4.1674   -5.2623    4.5704 C   0  0  0  0  0  0  0  0  0  0  0  0
    4.7376   -3.9676    4.8419 N   0  0  0  0  0  0  0  0  0  0  0  0
    5.6946   -3.3100    3.9734 C   0  0  0  0  0  0  0  0  0  0  0  0
    6.1097   -3.8094    2.8993 O   0  0  0  0  0  0  0  0  0  0  0  0
    6.0303   -2.0348    4.5890 C   0  0  0  0  0  0  0  0  0  0  0  0
    5.3631   -1.8680    5.7390 C   0  0  0  0  0  0  0  0  0  0  0  0
    4.5309   -3.0706    5.9375 C   0  0  0  0  0  0  0  0  0  0  0  0
    3.7795   -3.2547    6.9052 O   0  0  0  0  0  0  0  0  0  0  0  0
    5.0996   -2.1075    0.9210 H   0  0  0  0  0  0  0  0  0  0  0  0
    4.5714   -0.4489    0.8101 H   0  0  0  0  0  0  0  0  0  0  0  0
    5.3723   -1.3040   -0.6348 H   0  0  0  0  0  0  0  0  0  0  0  0
    2.7117   -1.9590    0.7593 H   0  0  0  0  0  0  0  0  0  0  0  0
    3.5235   -3.0191   -0.3464 H   0  0  0  0  0  0  0  0  0  0  0  0
    1.8692   -2.3762   -1.5199 H   0  0  0  0  0  0  0  0  0  0  0  0
    4.4916   -1.3796   -2.5485 H   0  0  0  0  0  0  0  0  0  0  0  0
    2.9599   -1.6402   -3.5666 H   0  0  0  0  0  0  0  0  0  0  0  0
    3.7255   -2.9404   -2.6392 H   0  0  0  0  0  0  0  0  0  0  0  0
    1.2542   -0.6098   -2.6431 H   0  0  0  0  0  0  0  0  0  0  0  0
   -0.1059    0.5717   -1.3857 H   0  0  0  0  0  0  0  0  0  0  0  0
   -0.5892   -1.7356   -1.9051 H   0  0  0  0  0  0  0  0  0  0  0  0
    0.2339   -2.3115   -0.4100 H   0  0  0  0  0  0  0  0  0  0  0  0
   -4.3720   -0.3060    0.1741 H   0  0  0  0  0  0  0  0  0  0  0  0
   -4.0787   -1.8465    0.9938 H   0  0  0  0  0  0  0  0  0  0  0  0
   -5.7498   -1.2767   -1.4696 H   0  0  0  0  0  0  0  0  0  0  0  0
   -5.8838   -2.6282   -0.2932 H   0  0  0  0  0  0  0  0  0  0  0  0
   -4.9605   -3.1349   -2.7001 H   0  0  0  0  0  0  0  0  0  0  0  0
   -4.1599   -3.8682   -1.2115 H   0  0  0  0  0  0  0  0  0  0  0  0
   -2.2665   -2.8564   -2.1477 H   0  0  0  0  0  0  0  0  0  0  0  0
   -2.2663   -0.5171   -3.0406 H   0  0  0  0  0  0  0  0  0  0  0  0
   -4.2617   -2.2833   -4.5610 H   0  0  0  0  0  0  0  0  0  0  0  0
   -2.3712   -0.0408   -5.5703 H   0  0  0  0  0  0  0  0  0  0  0  0
   -4.1803    0.1904   -5.2632 H   0  0  0  0  0  0  0  0  0  0  0  0
   -3.5967   -0.9245   -6.5000 H   0  0  0  0  0  0  0  0  0  0  0  0
   -2.8672   -4.3050   -3.7880 H   0  0  0  0  0  0  0  0  0  0  0  0
   -0.2478   -4.3677   -5.3392 H   0  0  0  0  0  0  0  0  0  0  0  0
   -2.2540   -6.5995   -5.0127 H   0  0  0  0  0  0  0  0  0  0  0  0
   -0.8491   -6.5305   -6.1445 H   0  0  0  0  0  0  0  0  0  0  0  0
   -2.3769   -5.4891   -6.3784 H   0  0  0  0  0  0  0  0  0  0  0  0
   -1.2364   -6.2742   -3.1603 H   0  0  0  0  0  0  0  0  0  0  0  0
    2.0511   -4.9661   -4.3117 H   0  0  0  0  0  0  0  0  0  0  0  0
    3.7965   -6.4016   -5.3313 H   0  0  0  0  0  0  0  0  0  0  0  0
    3.2602   -8.7830   -5.7439 H   0  0  0  0  0  0  0  0  0  0  0  0
    1.0278   -9.6667   -5.1530 H   0  0  0  0  0  0  0  0  0  0  0  0
   -0.6538   -8.1763   -4.1526 H   0  0  0  0  0  0  0  0  0  0  0  0
   -0.0470   -5.2947   -1.7353 H   0  0  0  0  0  0  0  0  0  0  0  0
   -4.7324    1.6845   -2.3654 H   0  0  0  0  0  0  0  0  0  0  0  0
   -3.3624    1.5476   -3.4771 H   0  0  0  0  0  0  0  0  0  0  0  0
   -3.1807    1.2039   -1.6778 H   0  0  0  0  0  0  0  0  0  0  0  0
    0.6624    2.3565    0.3285 H   0  0  0  0  0  0  0  0  0  0  0  0
   -0.8911    1.6344    0.8085 H   0  0  0  0  0  0  0  0  0  0  0  0
    0.4573    1.5803    1.9273 H   0  0  0  0  0  0  0  0  0  0  0  0
    2.9754    1.0880    0.0789 H   0  0  0  0  0  0  0  0  0  0  0  0
    2.7857    2.6431   -0.6726 H   0  0  0  0  0  0  0  0  0  0  0  0
    4.1473    1.6752   -1.2077 H   0  0  0  0  0  0  0  0  0  0  0  0
    1.6529    2.8122   -4.8148 H   0  0  0  0  0  0  0  0  0  0  0  0
    0.3682    4.4948   -4.0779 H   0  0  0  0  0  0  0  0  0  0  0  0
   -1.0153    1.9521   -3.1901 H   0  0  0  0  0  0  0  0  0  0  0  0
   -0.3540    2.2081   -4.8818 H   0  0  0  0  0  0  0  0  0  0  0  0
   -1.5754    3.2966   -4.2388 H   0  0  0  0  0  0  0  0  0  0  0  0
   -0.6137    3.2378   -1.4837 H   0  0  0  0  0  0  0  0  0  0  0  0
    0.9716    4.0467   -1.2916 H   0  0  0  0  0  0  0  0  0  0  0  0
   -0.4202    4.9380   -1.8507 H   0  0  0  0  0  0  0  0  0  0  0  0
    3.5524    3.4899   -2.5995 H   0  0  0  0  0  0  0  0  0  0  0  0
    5.1261    5.4841   -4.7840 H   0  0  0  0  0  0  0  0  0  0  0  0
    3.7652    6.7818   -5.8973 H   0  0  0  0  0  0  0  0  0  0  0  0
    5.0461    8.6369   -3.8261 H   0  0  0  0  0  0  0  0  0  0  0  0
    5.9417    7.4806   -4.8446 H   0  0  0  0  0  0  0  0  0  0  0  0
    4.9739    8.7247   -5.6854 H   0  0  0  0  0  0  0  0  0  0  0  0
    1.7824    7.5950   -5.0349 H   0  0  0  0  0  0  0  0  0  0  0  0
    2.2468    7.2597   -3.3247 H   0  0  0  0  0  0  0  0  0  0  0  0
    2.7158    8.8164   -4.1673 H   0  0  0  0  0  0  0  0  0  0  0  0
    6.7368    5.5890   -1.8893 H   0  0  0  0  0  0  0  0  0  0  0  0
    6.7304    7.0963   -2.7969 H   0  0  0  0  0  0  0  0  0  0  0  0
    6.7667    5.5112   -3.6655 H   0  0  0  0  0  0  0  0  0  0  0  0
    2.9103    7.5125    0.3225 H   0  0  0  0  0  0  0  0  0  0  0  0
    3.8933    6.0595    0.8276 H   0  0  0  0  0  0  0  0  0  0  0  0
    3.1247    4.4985    2.1141 H   0  0  0  0  0  0  0  0  0  0  0  0
    1.4679    3.3805    3.3852 H   0  0  0  0  0  0  0  0  0  0  0  0
   -1.5572    5.8047    1.6031 H   0  0  0  0  0  0  0  0  0  0  0  0
    0.1963    6.9625    0.2619 H   0  0  0  0  0  0  0  0  0  0  0  0
   -0.6748    3.1196    4.1353 H   0  0  0  0  0  0  0  0  0  0  0  0
   -3.8118    3.6313    5.1435 H   0  0  0  0  0  0  0  0  0  0  0  0
   -3.9619    1.6071    2.8965 H   0  0  0  0  0  0  0  0  0  0  0  0
   -5.0250    2.9600    3.2836 H   0  0  0  0  0  0  0  0  0  0  0  0
   -5.7483    2.3225    5.2972 H   0  0  0  0  0  0  0  0  0  0  0  0
   -4.5904    1.0986    5.6661 H   0  0  0  0  0  0  0  0  0  0  0  0
   -6.9230    1.0824    3.6636 H   0  0  0  0  0  0  0  0  0  0  0  0
   -6.8265    0.1700    5.1729 H   0  0  0  0  0  0  0  0  0  0  0  0
   -4.7064   -0.7274    3.4346 H   0  0  0  0  0  0  0  0  0  0  0  0
   -5.4604   -3.1361    2.3486 H   0  0  0  0  0  0  0  0  0  0  0  0
   -7.1624   -3.2508    1.9469 H   0  0  0  0  0  0  0  0  0  0  0  0
   -1.7576    2.7185    5.9144 H   0  0  0  0  0  0  0  0  0  0  0  0
   -0.1581    0.2967    5.5948 H   0  0  0  0  0  0  0  0  0  0  0  0
   -2.4336   -0.4867    7.5023 H   0  0  0  0  0  0  0  0  0  0  0  0
   -0.9322    0.9943    9.0818 H   0  0  0  0  0  0  0  0  0  0  0  0
   -2.1468    1.8418    8.0850 H   0  0  0  0  0  0  0  0  0  0  0  0
   -0.4088    1.8596    7.6442 H   0  0  0  0  0  0  0  0  0  0  0  0
   -0.7158   -1.1727    8.9571 H   0  0  0  0  0  0  0  0  0  0  0  0
    0.5767   -0.6233    7.8772 H   0  0  0  0  0  0  0  0  0  0  0  0
   -0.5043   -2.0375    7.4016 H   0  0  0  0  0  0  0  0  0  0  0  0
   -2.2059   -1.8789    5.5171 H   0  0  0  0  0  0  0  0  0  0  0  0
   -0.8500   -4.1115    5.1855 H   0  0  0  0  0  0  0  0  0  0  0  0
   -1.3554   -3.5238    3.5807 H   0  0  0  0  0  0  0  0  0  0  0  0
    0.8455   -3.7198    2.6840 H   0  0  0  0  0  0  0  0  0  0  0  0
    0.3176   -5.2522    3.3844 H   0  0  0  0  0  0  0  0  0  0  0  0
    2.3437   -3.3517    4.5474 H   0  0  0  0  0  0  0  0  0  0  0  0
    1.7092   -4.7502    5.4956 H   0  0  0  0  0  0  0  0  0  0  0  0
    2.5583   -6.1949    3.4859 H   0  0  0  0  0  0  0  0  0  0  0  0
    3.1592   -4.5907    2.8200 H   0  0  0  0  0  0  0  0  0  0  0  0
    3.9674   -5.7656    5.5686 H   0  0  0  0  0  0  0  0  0  0  0  0
    4.9489   -5.9186    4.0939 H   0  0  0  0  0  0  0  0  0  0  0  0
    6.7421   -1.3476    4.1268 H   0  0  0  0  0  0  0  0  0  0  0  0
    5.4461   -0.9964    6.3904 H   0  0  0  0  0  0  0  0  0  0  0  0
  1  2  1  0
  2  3  1  0
  3  4  1  0
  3  5  1  0
  5  6  1  0
  6  7  1  0
  7  8  1  0
  8  9  2  0
  8 10  1  0
 10 11  1  0
 11 12  1  0
 12 13  1  0
 13 14  1  0
 14 15  1  0
 15 16  1  0
 16 17  1  0
 16 18  1  0
 18 19  2  0
 18 20  1  0
 20 21  1  0
 21 22  1  0
 21 23  1  0
 23 24  1  0
 24 25  2  0
 25 26  1  0
 26 27  2  0
 27 28  1  0
 28 29  2  0
 23 30  1  0
 15 31  1  0
 31 32  1  0
  6 33  1  0
 33 34  1  0
  5 35  1  0
 35 36  1  0
 35 37  1  0
 37 38  2  0
 37 39  1  0
 39 40  1  0
 40 41  1  0
 40 42  1  0
 39 43  1  0
 43 44  1  0
 44 45  2  0
 44 46  1  0
 46 47  1  0
 47 48  1  0
 47 49  1  0
 46 50  1  0
 50 51  1  0
 50 52  1  0
 52 53  2  0
 52 54  1  0
 54 55  1  0
 55 56  1  0
 56 57  1  0
 57 58  2  0
 58 59  1  0
 59 60  2  0
 60 61  1  0
 59 62  1  0
 62 63  1  0
 63 64  2  0
 63 65  1  0
 65 66  1  0
 66 67  1  0
 67 68  1  0
 68 69  1  0
 69 70  1  0
 70 71  2  0
 70 72  1  0
 65 73  1  0
 73 74  1  0
 74 75  2  0
 74 76  1  0
 76 77  1  0
 77 78  1  0
 77 79  1  0
 76 80  1  0
 80 81  1  0
 81 82  2  0
 81 83  1  0
 83 84  1  0
 84 85  1  0
 85 86  1  0
 86 87  1  0
 87 88  1  0
 88 89  1  0
 89 90  2  0
 89 91  1  0
 91 92  2  0
 92 93  1  0
 93 94  2  0
 14 10  1  0
 29 24  1  0
 61 56  2  0
 93 88  1  0
  1 95  1  0
  1 96  1  0
  1 97  1  0
  2 98  1  0
  2 99  1  0
  3100  1  6
  4101  1  0
  4102  1  0
  4103  1  0
  5104  1  6
  6105  1  6
  7106  1  0
  7107  1  0
 11108  1  0
 11109  1  0
 12110  1  0
 12111  1  0
 13112  1  0
 13113  1  0
 14114  1  6
 15115  1  6
 16116  1  1
 17117  1  0
 17118  1  0
 17119  1  0
 20120  1  0
 21121  1  6
 22122  1  0
 22123  1  0
 22124  1  0
 23125  1  1
 25126  1  0
 26127  1  0
 27128  1  0
 28129  1  0
 29130  1  0
 30131  1  0
 32132  1  0
 32133  1  0
 32134  1  0
 34135  1  0
 34136  1  0
 34137  1  0
 36138  1  0
 36139  1  0
 36140  1  0
 39141  1  6
 40142  1  0
 41143  1  0
 41144  1  0
 41145  1  0
 42146  1  0
 42147  1  0
 42148  1  0
 43149  1  0
 46150  1  6
 47151  1  0
 48152  1  0
 48153  1  0
 48154  1  0
 49155  1  0
 49156  1  0
 49157  1  0
 51158  1  0
 51159  1  0
 51160  1  0
 55161  1  0
 55162  1  0
 57163  1  0
 58164  1  0
 60165  1  0
 61166  1  0
 62167  1  0
 65168  1  1
 66169  1  0
 66170  1  0
 67171  1  0
 67172  1  0
 68173  1  0
 68174  1  0
 69175  1  0
 72176  1  0
 72177  1  0
 73178  1  0
 76179  1  1
 77180  1  0
 78181  1  0
 78182  1  0
 78183  1  0
 79184  1  0
 79185  1  0
 79186  1  0
 80187  1  0
 83188  1  0
 83189  1  0
 84190  1  0
 84191  1  0
 85192  1  0
 85193  1  0
 86194  1  0
 86195  1  0
 87196  1  0
 87197  1  0
 91198  1  0
 92199  1  0
M  END
$$$$

     RDKit          3D

199202  0  0  0  0  0  0  0  0999 V2000
    6.7905    4.0036    3.4131 C   0  0  0  0  0  0  0  0  0  0  0  0
    5.4631    4.6843    3.3247 C   0  0  0  0  0  0  0  0  0  0  0  0
    4.9878    4.9217    1.9005 C   0  0  2  0  0  0  0  0  0  0  0  0
    3.6904    5.6190    1.9292 C   0  0  0  0  0  0  0  0  0  0  0  0
    5.1190    3.6970    1.0537 C   0  0  1  0  0  0  0  0  0  0  0  0
    4.3829    2.4909    1.4187 C   0  0  1  0  0  0  0  0  0  0  0  0
    5.0804    1.2662    0.7764 C   0  0  0  0  0  0  0  0  0  0  0  0
    4.3226    0.0227    1.1769 C   0  0  0  0  0  0  0  0  0  0  0  0
    4.6109   -0.5735    2.2716 O   0  0  0  0  0  0  0  0  0  0  0  0
    3.2831   -0.5094    0.3620 N   0  0  0  0  0  0  0  0  0  0  0  0
    2.9097    0.0760   -0.9107 C   0  0  0  0  0  0  0  0  0  0  0  0
    1.6858   -0.6459   -1.3688 C   0  0  0  0  0  0  0  0  0  0  0  0
    1.7681   -1.9657   -0.6839 C   0  0  0  0  0  0  0  0  0  0  0  0
    2.4572   -1.6358    0.6498 C   0  0  1  0  0  0  0  0  0  0  0  0
    3.2207   -2.9054    0.9875 C   0  0  1  0  0  0  0  0  0  0  0  0
    2.2178   -3.9924    1.2588 C   0  0  1  0  0  0  0  0  0  0  0  0
    3.0389   -5.2586    1.5691 C   0  0  0  0  0  0  0  0  0  0  0  0
    1.4063   -3.7235    2.4984 C   0  0  0  0  0  0  0  0  0  0  0  0
    1.6055   -2.7202    3.2269 O   0  0  0  0  0  0  0  0  0  0  0  0
    0.3725   -4.6122    2.8895 N   0  0  0  0  0  0  0  0  0  0  0  0
   -0.4176   -4.3928    4.0590 C   0  0  2  0  0  0  0  0  0  0  0  0
   -0.1839   -5.4351    5.1309 C   0  0  0  0  0  0  0  0  0  0  0  0
   -1.8614   -4.2031    3.7447 C   0  0  1  0  0  0  0  0  0  0  0  0
   -2.4792   -5.3278    2.9889 C   0  0  0  0  0  0  0  0  0  0  0  0
   -2.7808   -6.5206    3.6040 C   0  0  0  0  0  0  0  0  0  0  0  0
   -3.3651   -7.5288    2.8598 C   0  0  0  0  0  0  0  0  0  0  0  0
   -3.6633   -7.3975    1.5191 C   0  0  0  0  0  0  0  0  0  0  0  0
   -3.3542   -6.1842    0.9027 C   0  0  0  0  0  0  0  0  0  0  0  0
   -2.7627   -5.1468    1.6305 C   0  0  0  0  0  0  0  0  0  0  0  0
   -2.5564   -3.9977    4.9597 O   0  0  0  0  0  0  0  0  0  0  0  0
    4.0011   -3.2218   -0.1162 O   0  0  0  0  0  0  0  0  0  0  0  0
    5.3348   -3.3442    0.1679 C   0  0  0  0  0  0  0  0  0  0  0  0
    4.3408    2.1587    2.7779 O   0  0  0  0  0  0  0  0  0  0  0  0
    3.0373    1.8992    3.1914 C   0  0  0  0  0  0  0  0  0  0  0  0
    5.1229    4.0218   -0.3635 N   0  0  0  0  0  0  0  0  0  0  0  0
    6.4715    4.1430   -0.9578 C   0  0  0  0  0  0  0  0  0  0  0  0
    3.9431    4.2371   -1.0644 C   0  0  0  0  0  0  0  0  0  0  0  0
    2.8645    4.0610   -0.2917 O   0  0  0  0  0  0  0  0  0  0  0  0
    3.5493    4.6026   -2.4002 C   0  0  1  0  0  0  0  0  0  0  0  0
    3.9084    3.7080   -3.5192 C   0  0  0  0  0  0  0  0  0  0  0  0
    5.3252    3.4324   -3.8226 C   0  0  0  0  0  0  0  0  0  0  0  0
    3.3129    4.2859   -4.8296 C   0  0  0  0  0  0  0  0  0  0  0  0
    2.0612    4.7077   -2.4400 N   0  0  0  0  0  0  0  0  0  0  0  0
    1.3613    5.8033   -2.9584 C   0  0  0  0  0  0  0  0  0  0  0  0
    1.9825    6.7826   -3.4429 O   0  0  0  0  0  0  0  0  0  0  0  0
   -0.1570    5.7835   -2.9195 C   0  0  1  0  0  0  0  0  0  0  0  0
   -0.7817    5.9851   -4.2376 C   0  0  0  0  0  0  0  0  0  0  0  0
   -0.4133    7.3146   -4.8725 C   0  0  0  0  0  0  0  0  0  0  0  0
   -2.2945    5.9590   -4.0614 C   0  0  0  0  0  0  0  0  0  0  0  0
   -0.5572    4.5407   -2.3074 N   0  0  0  0  0  0  0  0  0  0  0  0
   -1.0512    4.6240   -0.9214 C   0  0  0  0  0  0  0  0  0  0  0  0
   -0.5034    3.2682   -2.9336 C   0  0  0  0  0  0  0  0  0  0  0  0
   -0.7964    2.2611   -2.2041 O   0  0  0  0  0  0  0  0  0  0  0  0
   -0.1710    3.0252   -4.2340 O   0  0  0  0  0  0  0  0  0  0  0  0
   -0.0723    1.7887   -4.8973 C   0  0  0  0  0  0  0  0  0  0  0  0
   -1.3075    0.9916   -4.7998 C   0  0  0  0  0  0  0  0  0  0  0  0
   -1.3352    0.0035   -3.8123 C   0  0  0  0  0  0  0  0  0  0  0  0
   -2.4148   -0.7975   -3.5713 C   0  0  0  0  0  0  0  0  0  0  0  0
   -3.5659   -0.6374   -4.3453 C   0  0  0  0  0  0  0  0  0  0  0  0
   -3.5594    0.3208   -5.3170 C   0  0  0  0  0  0  0  0  0  0  0  0
   -2.4349    1.1344   -5.5463 C   0  0  0  0  0  0  0  0  0  0  0  0
   -4.6424   -1.4981   -4.0118 N   0  0  0  0  0  0  0  0  0  0  0  0
   -4.7803   -2.8137   -4.6141 C   0  0  0  0  0  0  0  0  0  0  0  0
   -3.8709   -3.0666   -5.4552 O   0  0  0  0  0  0  0  0  0  0  0  0
   -5.8765   -3.7301   -4.2595 C   0  0  1  0  0  0  0  0  0  0  0  0
   -5.4436   -5.1151   -4.0107 C   0  0  0  0  0  0  0  0  0  0  0  0
   -4.8024   -5.7499   -5.2071 C   0  0  0  0  0  0  0  0  0  0  0  0
   -4.3916   -7.1952   -4.8830 C   0  0  0  0  0  0  0  0  0  0  0  0
   -3.4555   -7.2730   -3.8050 N   0  0  0  0  0  0  0  0  0  0  0  0
   -2.1721   -6.6314   -3.8780 C   0  0  0  0  0  0  0  0  0  0  0  0
   -1.8175   -5.9705   -4.9053 O   0  0  0  0  0  0  0  0  0  0  0  0
   -1.2509   -6.7118   -2.8029 N   0  0  0  0  0  0  0  0  0  0  0  0
   -6.5875   -3.1530   -3.1154 N   0  0  0  0  0  0  0  0  0  0  0  0
   -5.8432   -2.8985   -1.9331 C   0  0  0  0  0  0  0  0  0  0  0  0
   -4.6155   -3.1831   -1.9344 O   0  0  0  0  0  0  0  0  0  0  0  0
   -6.3997   -2.3208   -0.6965 C   0  0  1  0  0  0  0  0  0  0  0  0
   -7.4464   -3.1371   -0.0201 C   0  0  0  0  0  0  0  0  0  0  0  0
   -6.9196   -4.4835    0.3730 C   0  0  0  0  0  0  0  0  0  0  0  0
   -8.7432   -3.2711   -0.7364 C   0  0  0  0  0  0  0  0  0  0  0  0
   -5.3210   -2.1504    0.3002 N   0  0  0  0  0  0  0  0  0  0  0  0
   -4.9538   -0.8531    0.6898 C   0  0  0  0  0  0  0  0  0  0  0  0
   -5.5306    0.1748    0.2036 O   0  0  0  0  0  0  0  0  0  0  0  0
   -3.8805   -0.5626    1.6840 C   0  0  0  0  0  0  0  0  0  0  0  0
   -3.7281    0.9197    1.8600 C   0  0  0  0  0  0  0  0  0  0  0  0
   -2.6727    1.3340    2.8275 C   0  0  0  0  0  0  0  0  0  0  0  0
   -2.9584    0.7839    4.1965 C   0  0  0  0  0  0  0  0  0  0  0  0
   -1.9139    1.1775    5.2211 C   0  0  0  0  0  0  0  0  0  0  0  0
   -2.3359    0.5704    6.4736 N   0  0  0  0  0  0  0  0  0  0  0  0
   -3.1840    1.1327    7.4867 C   0  0  0  0  0  0  0  0  0  0  0  0
   -3.7133    2.2792    7.4571 O   0  0  0  0  0  0  0  0  0  0  0  0
   -3.3238    0.1343    8.5607 C   0  0  0  0  0  0  0  0  0  0  0  0
   -2.6225   -0.9508    8.2384 C   0  0  0  0  0  0  0  0  0  0  0  0
   -1.9846   -0.7218    6.9351 C   0  0  0  0  0  0  0  0  0  0  0  0
   -1.2565   -1.5988    6.3943 O   0  0  0  0  0  0  0  0  0  0  0  0
    7.2594    4.3438    4.3895 H   0  0  0  0  0  0  0  0  0  0  0  0
    6.7980    2.9205    3.4636 H   0  0  0  0  0  0  0  0  0  0  0  0
    7.4663    4.4104    2.6299 H   0  0  0  0  0  0  0  0  0  0  0  0
    5.5583    5.6846    3.7998 H   0  0  0  0  0  0  0  0  0  0  0  0
    4.6972    4.1621    3.9490 H   0  0  0  0  0  0  0  0  0  0  0  0
    5.7419    5.6553    1.4829 H   0  0  0  0  0  0  0  0  0  0  0  0
    3.7062    6.4075    2.7634 H   0  0  0  0  0  0  0  0  0  0  0  0
    2.8566    4.9681    2.1958 H   0  0  0  0  0  0  0  0  0  0  0  0
    3.4727    6.2730    1.0342 H   0  0  0  0  0  0  0  0  0  0  0  0
    6.2528    3.4480    1.2517 H   0  0  0  0  0  0  0  0  0  0  0  0
    3.3266    2.4262    1.0826 H   0  0  0  0  0  0  0  0  0  0  0  0
    6.0899    1.1571    1.2036 H   0  0  0  0  0  0  0  0  0  0  0  0
    5.0389    1.3176   -0.3108 H   0  0  0  0  0  0  0  0  0  0  0  0
    3.7329    0.0480   -1.6633 H   0  0  0  0  0  0  0  0  0  0  0  0
    2.6223    1.1483   -0.7855 H   0  0  0  0  0  0  0  0  0  0  0  0
    0.7548   -0.1060   -1.1211 H   0  0  0  0  0  0  0  0  0  0  0  0
    1.7656   -0.7364   -2.4868 H   0  0  0  0  0  0  0  0  0  0  0  0
    2.3361   -2.6937   -1.2623 H   0  0  0  0  0  0  0  0  0  0  0  0
    0.7410   -2.3715   -0.4867 H   0  0  0  0  0  0  0  0  0  0  0  0
    1.6583   -1.3892    1.3619 H   0  0  0  0  0  0  0  0  0  0  0  0
    3.8435   -2.8003    1.8977 H   0  0  0  0  0  0  0  0  0  0  0  0
    1.5932   -4.2169    0.3807 H   0  0  0  0  0  0  0  0  0  0  0  0
    3.7617   -5.0346    2.3796 H   0  0  0  0  0  0  0  0  0  0  0  0
    3.5964   -5.6123    0.7007 H   0  0  0  0  0  0  0  0  0  0  0  0
    2.3477   -6.0401    1.9657 H   0  0  0  0  0  0  0  0  0  0  0  0
    0.1457   -5.4815    2.3203 H   0  0  0  0  0  0  0  0  0  0  0  0
   -0.0598   -3.4275    4.5059 H   0  0  0  0  0  0  0  0  0  0  0  0
   -1.0225   -5.3455    5.8677 H   0  0  0  0  0  0  0  0  0  0  0  0
   -0.1546   -6.4497    4.6746 H   0  0  0  0  0  0  0  0  0  0  0  0
    0.7286   -5.2019    5.7259 H   0  0  0  0  0  0  0  0  0  0  0  0
   -1.9765   -3.2549    3.1734 H   0  0  0  0  0  0  0  0  0  0  0  0
   -2.5798   -6.7059    4.6494 H   0  0  0  0  0  0  0  0  0  0  0  0
   -3.6113   -8.4763    3.3159 H   0  0  0  0  0  0  0  0  0  0  0  0
   -4.1189   -8.2028    0.9559 H   0  0  0  0  0  0  0  0  0  0  0  0
   -3.5694   -6.0221   -0.1627 H   0  0  0  0  0  0  0  0  0  0  0  0
   -2.5159   -4.2053    1.1766 H   0  0  0  0  0  0  0  0  0  0  0  0
   -2.2411   -3.1215    5.3040 H   0  0  0  0  0  0  0  0  0  0  0  0
    5.9301   -3.6108   -0.7389 H   0  0  0  0  0  0  0  0  0  0  0  0
    5.7315   -2.3739    0.5035 H   0  0  0  0  0  0  0  0  0  0  0  0
    5.4660   -4.1366    0.9565 H   0  0  0  0  0  0  0  0  0  0  0  0
    2.5270    1.0892    2.6695 H   0  0  0  0  0  0  0  0  0  0  0  0
    2.4722    2.8485    3.1372 H   0  0  0  0  0  0  0  0  0  0  0  0
    3.0534    1.6585    4.2956 H   0  0  0  0  0  0  0  0  0  0  0  0
    6.8030    3.2218   -1.4225 H   0  0  0  0  0  0  0  0  0  0  0  0
    7.2233    4.3279   -0.1241 H   0  0  0  0  0  0  0  0  0  0  0  0
    6.5724    5.0485   -1.5823 H   0  0  0  0  0  0  0  0  0  0  0  0
    3.8999    5.6336   -2.6472 H   0  0  0  0  0  0  0  0  0  0  0  0
    3.2978    2.7569   -3.3960 H   0  0  0  0  0  0  0  0  0  0  0  0
    5.6606    2.4976   -3.3344 H   0  0  0  0  0  0  0  0  0  0  0  0
    5.4506    3.1701   -4.9415 H   0  0  0  0  0  0  0  0  0  0  0  0
    5.9990    4.2979   -3.7247 H   0  0  0  0  0  0  0  0  0  0  0  0
    3.7516    3.6656   -5.6367 H   0  0  0  0  0  0  0  0  0  0  0  0
    3.6998    5.3049   -4.9956 H   0  0  0  0  0  0  0  0  0  0  0  0
    2.2305    4.1652   -4.8795 H   0  0  0  0  0  0  0  0  0  0  0  0
    1.6071    3.8451   -2.0169 H   0  0  0  0  0  0  0  0  0  0  0  0
   -0.3774    6.6341   -2.2372 H   0  0  0  0  0  0  0  0  0  0  0  0
   -0.5221    5.2181   -4.9915 H   0  0  0  0  0  0  0  0  0  0  0  0
   -0.6450    8.1677   -4.2160 H   0  0  0  0  0  0  0  0  0  0  0  0
   -1.0817    7.4331   -5.7619 H   0  0  0  0  0  0  0  0  0  0  0  0
    0.6079    7.2760   -5.2667 H   0  0  0  0  0  0  0  0  0  0  0  0
   -2.6586    6.9852   -3.7939 H   0  0  0  0  0  0  0  0  0  0  0  0
   -2.6357    5.2991   -3.2551 H   0  0  0  0  0  0  0  0  0  0  0  0
   -2.8240    5.6333   -4.9813 H   0  0  0  0  0  0  0  0  0  0  0  0
   -0.8407    3.7075   -0.3472 H   0  0  0  0  0  0  0  0  0  0  0  0
   -0.5566    5.4881   -0.4173 H   0  0  0  0  0  0  0  0  0  0  0  0
   -2.1359    4.8031   -0.9790 H   0  0  0  0  0  0  0  0  0  0  0  0
    0.2277    1.9594   -5.9618 H   0  0  0  0  0  0  0  0  0  0  0  0
    0.7567    1.2077   -4.4024 H   0  0  0  0  0  0  0  0  0  0  0  0
   -0.4542   -0.1789   -3.1919 H   0  0  0  0  0  0  0  0  0  0  0  0
   -2.3746   -1.5593   -2.7797 H   0  0  0  0  0  0  0  0  0  0  0  0
   -4.4586    0.4348   -5.9080 H   0  0  0  0  0  0  0  0  0  0  0  0
   -2.4398    1.8886   -6.3171 H   0  0  0  0  0  0  0  0  0  0  0  0
   -5.3300   -1.1303   -3.3265 H   0  0  0  0  0  0  0  0  0  0  0  0
   -6.6541   -3.6698   -5.0991 H   0  0  0  0  0  0  0  0  0  0  0  0
   -4.6323   -5.0834   -3.2235 H   0  0  0  0  0  0  0  0  0  0  0  0
   -6.2662   -5.7931   -3.6823 H   0  0  0  0  0  0  0  0  0  0  0  0
   -5.5326   -5.8544   -6.0358 H   0  0  0  0  0  0  0  0  0  0  0  0
   -3.9125   -5.2436   -5.6000 H   0  0  0  0  0  0  0  0  0  0  0  0
   -4.0038   -7.6075   -5.8110 H   0  0  0  0  0  0  0  0  0  0  0  0
   -5.3220   -7.7195   -4.5513 H   0  0  0  0  0  0  0  0  0  0  0  0
   -3.6408   -7.7903   -2.9145 H   0  0  0  0  0  0  0  0  0  0  0  0
   -0.5350   -5.9860   -2.5828 H   0  0  0  0  0  0  0  0  0  0  0  0
   -1.2828   -7.5418   -2.1859 H   0  0  0  0  0  0  0  0  0  0  0  0
   -7.6019   -2.9222   -3.1298 H   0  0  0  0  0  0  0  0  0  0  0  0
   -6.7387   -1.2908   -0.9323 H   0  0  0  0  0  0  0  0  0  0  0  0
   -7.6754   -2.5967    0.9452 H   0  0  0  0  0  0  0  0  0  0  0  0
   -6.5210   -4.4711    1.4144 H   0  0  0  0  0  0  0  0  0  0  0  0
   -6.1692   -4.8767   -0.3154 H   0  0  0  0  0  0  0  0  0  0  0  0
   -7.7554   -5.2222    0.3845 H   0  0  0  0  0  0  0  0  0  0  0  0
   -8.8141   -4.1057   -1.4397 H   0  0  0  0  0  0  0  0  0  0  0  0
   -9.0400   -2.3420   -1.2979 H   0  0  0  0  0  0  0  0  0  0  0  0
   -9.5907   -3.4124   -0.0004 H   0  0  0  0  0  0  0  0  0  0  0  0
   -4.8320   -2.9589    0.7135 H   0  0  0  0  0  0  0  0  0  0  0  0
   -4.0060   -1.1240    2.6098 H   0  0  0  0  0  0  0  0  0  0  0  0
   -2.9159   -0.9124    1.2123 H   0  0  0  0  0  0  0  0  0  0  0  0
   -4.6969    1.3936    2.1265 H   0  0  0  0  0  0  0  0  0  0  0  0
   -3.4481    1.3418    0.8458 H   0  0  0  0  0  0  0  0  0  0  0  0
   -1.6416    1.1055    2.4934 H   0  0  0  0  0  0  0  0  0  0  0  0
   -2.7241    2.4552    2.9422 H   0  0  0  0  0  0  0  0  0  0  0  0
   -3.9300    1.2109    4.5423 H   0  0  0  0  0  0  0  0  0  0  0  0
   -2.9677   -0.3187    4.1308 H   0  0  0  0  0  0  0  0  0  0  0  0
   -0.9140    0.8282    4.9746 H   0  0  0  0  0  0  0  0  0  0  0  0
   -1.8949    2.2640    5.3980 H   0  0  0  0  0  0  0  0  0  0  0  0
   -3.9239    0.3070    9.4623 H   0  0  0  0  0  0  0  0  0  0  0  0
   -2.5301   -1.8602    8.8347 H   0  0  0  0  0  0  0  0  0  0  0  0
  1  2  1  0
  2  3  1  0
  3  4  1  0
  3  5  1  0
  5  6  1  0
  6  7  1  0
  7  8  1  0
  8  9  2  0
  8 10  1  0
 10 11  1  0
 11 12  1  0
 12 13  1  0
 13 14  1  0
 14 15  1  0
 15 16  1  0
 16 17  1  0
 16 18  1  0
 18 19  2  0
 18 20  1  0
 20 21  1  0
 21 22  1  0
 21 23  1  0
 23 24  1  0
 24 25  2  0
 25 26  1  0
 26 27  2  0
 27 28  1  0
 28 29  2  0
 23 30  1  0
 15 31  1  0
 31 32  1  0
  6 33  1  0
 33 34  1  0
  5 35  1  0
 35 36  1  0
 35 37  1  0
 37 38  2  0
 37 39  1  0
 39 40  1  0
 40 41  1  0
 40 42  1  0
 39 43  1  0
 43 44  1  0
 44 45  2  0
 44 46  1  0
 46 47  1  0
 47 48  1  0
 47 49  1  0
 46 50  1  0
 50 51  1  0
 50 52  1  0
 52 53  2  0
 52 54  1  0
 54 55  1  0
 55 56  1  0
 56 57  1  0
 57 58  2  0
 58 59  1  0
 59 60  2  0
 60 61  1  0
 59 62  1  0
 62 63  1  0
 63 64  2  0
 63 65  1  0
 65 66  1  0
 66 67  1  0
 67 68  1  0
 68 69  1  0
 69 70  1  0
 70 71  2  0
 70 72  1  0
 65 73  1  0
 73 74  1  0
 74 75  2  0
 74 76  1  0
 76 77  1  0
 77 78  1  0
 77 79  1  0
 76 80  1  0
 80 81  1  0
 81 82  2  0
 81 83  1  0
 83 84  1  0
 84 85  1  0
 85 86  1  0
 86 87  1  0
 87 88  1  0
 88 89  1  0
 89 90  2  0
 89 91  1  0
 91 92  2  0
 92 93  1  0
 93 94  2  0
 14 10  1  0
 29 24  1  0
 61 56  2  0
 93 88  1  0
  1 95  1  0
  1 96  1  0
  1 97  1  0
  2 98  1  0
  2 99  1  0
  3100  1  6
  4101  1  0
  4102  1  0
  4103  1  0
  5104  1  1
  6105  1  6
  7106  1  0
  7107  1  0
 11108  1  0
 11109  1  0
 12110  1  0
 12111  1  0
 13112  1  0
 13113  1  0
 14114  1  1
 15115  1  1
 16116  1  6
 17117  1  0
 17118  1  0
 17119  1  0
 20120  1  0
 21121  1  1
 22122  1  0
 22123  1  0
 22124  1  0
 23125  1  6
 25126  1  0
 26127  1  0
 27128  1  0
 28129  1  0
 29130  1  0
 30131  1  0
 32132  1  0
 32133  1  0
 32134  1  0
 34135  1  0
 34136  1  0
 34137  1  0
 36138  1  0
 36139  1  0
 36140  1  0
 39141  1  6
 40142  1  0
 41143  1  0
 41144  1  0
 41145  1  0
 42146  1  0
 42147  1  0
 42148  1  0
 43149  1  0
 46150  1  1
 47151  1  0
 48152  1  0
 48153  1  0
 48154  1  0
 49155  1  0
 49156  1  0
 49157  1  0
 51158  1  0
 51159  1  0
 51160  1  0
 55161  1  0
 55162  1  0
 57163  1  0
 58164  1  0
 60165  1  0
 61166  1  0
 62167  1  0
 65168  1  6
 66169  1  0
 66170  1  0
 67171  1  0
 67172  1  0
 68173  1  0
 68174  1  0
 69175  1  0
 72176  1  0
 72177  1  0
 73178  1  0
 76179  1  6
 77180  1  0
 78181  1  0
 78182  1  0
 78183  1  0
 79184  1  0
 79185  1  0
 79186  1  0
 80187  1  0
 83188  1  0
 83189  1  0
 84190  1  0
 84191  1  0
 85192  1  0
 85193  1  0
 86194  1  0
 86195  1  0
 87196  1  0
 87197  1  0
 91198  1  0
 92199  1  0
M  END
$$$$

     RDKit          3D

199202  0  0  0  0  0  0  0  0999 V2000
   -4.8277    5.1703    1.1030 C   0  0  0  0  0  0  0  0  0  0  0  0
   -4.0238    4.0095    1.6386 C   0  0  0  0  0  0  0  0  0  0  0  0
   -4.8630    3.3673    2.7535 C   0  0  2  0  0  0  0  0  0  0  0  0
   -5.0574    4.4424    3.7679 C   0  0  0  0  0  0  0  0  0  0  0  0
   -4.1885    2.1447    3.2706 C   0  0  1  0  0  0  0  0  0  0  0  0
   -4.9078    1.4147    4.3402 C   0  0  1  0  0  0  0  0  0  0  0  0
   -4.1091    0.9551    5.5115 C   0  0  0  0  0  0  0  0  0  0  0  0
   -2.9906    0.0656    5.5371 C   0  0  0  0  0  0  0  0  0  0  0  0
   -1.9707    0.4327    6.2563 O   0  0  0  0  0  0  0  0  0  0  0  0
   -2.7896   -1.1906    4.9037 N   0  0  0  0  0  0  0  0  0  0  0  0
   -3.8405   -1.6840    3.9517 C   0  0  0  0  0  0  0  0  0  0  0  0
   -3.0213   -2.5298    2.9596 C   0  0  0  0  0  0  0  0  0  0  0  0
   -1.5526   -2.3864    3.4320 C   0  0  0  0  0  0  0  0  0  0  0  0
   -1.8504   -2.2107    4.9177 C   0  0  1  0  0  0  0  0  0  0  0  0
   -0.8567   -2.6013    5.8734 C   0  0  1  0  0  0  0  0  0  0  0  0
    0.2952   -1.8327    6.3172 C   0  0  1  0  0  0  0  0  0  0  0  0
    1.0560   -2.7557    7.3115 C   0  0  0  0  0  0  0  0  0  0  0  0
    1.3029   -1.4075    5.3263 C   0  0  0  0  0  0  0  0  0  0  0  0
    1.2736   -1.6379    4.1021 O   0  0  0  0  0  0  0  0  0  0  0  0
    2.4247   -0.6609    5.8104 N   0  0  0  0  0  0  0  0  0  0  0  0
    3.4838   -0.1640    4.9898 C   0  0  2  0  0  0  0  0  0  0  0  0
    4.7730   -0.9880    5.1850 C   0  0  0  0  0  0  0  0  0  0  0  0
    3.8347    1.2212    5.4939 C   0  0  1  0  0  0  0  0  0  0  0  0
    2.7151    2.1712    5.5192 C   0  0  0  0  0  0  0  0  0  0  0  0
    1.5750    2.0719    4.7664 C   0  0  0  0  0  0  0  0  0  0  0  0
    0.5967    3.0454    4.9038 C   0  0  0  0  0  0  0  0  0  0  0  0
    0.7092    4.1129    5.7650 C   0  0  0  0  0  0  0  0  0  0  0  0
    1.8502    4.2164    6.5216 C   0  0  0  0  0  0  0  0  0  0  0  0
    2.8278    3.2586    6.3932 C   0  0  0  0  0  0  0  0  0  0  0  0
    4.2490    1.0951    6.8501 O   0  0  0  0  0  0  0  0  0  0  0  0
   -1.4922   -3.0116    7.1159 O   0  0  0  0  0  0  0  0  0  0  0  0
   -1.4985   -4.3644    7.2710 C   0  0  0  0  0  0  0  0  0  0  0  0
   -5.6754    2.5193    4.9787 O   0  0  0  0  0  0  0  0  0  0  0  0
   -6.9929    2.0870    5.0532 C   0  0  0  0  0  0  0  0  0  0  0  0
   -3.4624    1.4354    2.2635 N   0  0  0  0  0  0  0  0  0  0  0  0
   -1.9842    1.3946    2.4328 C   0  0  0  0  0  0  0  0  0  0  0  0
   -3.9494    0.8026    1.1015 C   0  0  0  0  0  0  0  0  0  0  0  0
   -2.9598    0.2199    0.4223 O   0  0  0  0  0  0  0  0  0  0  0  0
   -5.2244    0.6536    0.4806 C   0  0  1  0  0  0  0  0  0  0  0  0
   -6.4343    0.3881    1.2406 C   0  0  0  0  0  0  0  0  0  0  0  0
   -7.6755    0.3638    0.2956 C   0  0  0  0  0  0  0  0  0  0  0  0
   -6.4593   -1.0554    1.8055 C   0  0  0  0  0  0  0  0  0  0  0  0
   -5.3942    1.4197   -0.7677 N   0  0  0  0  0  0  0  0  0  0  0  0
   -5.0841    0.9645   -2.0282 C   0  0  0  0  0  0  0  0  0  0  0  0
   -4.6029   -0.2383   -2.1123 O   0  0  0  0  0  0  0  0  0  0  0  0
   -5.2057    1.6339   -3.3417 C   0  0  1  0  0  0  0  0  0  0  0  0
   -5.2614    3.0879   -3.4118 C   0  0  0  0  0  0  0  0  0  0  0  0
   -6.4259    3.7197   -2.6948 C   0  0  0  0  0  0  0  0  0  0  0  0
   -5.4422    3.4655   -4.8924 C   0  0  0  0  0  0  0  0  0  0  0  0
   -4.1675    1.0135   -4.1732 N   0  0  0  0  0  0  0  0  0  0  0  0
   -2.7898    1.3547   -3.7797 C   0  0  0  0  0  0  0  0  0  0  0  0
   -4.4248    0.1643   -5.2763 C   0  0  0  0  0  0  0  0  0  0  0  0
   -5.5735   -0.0245   -5.7485 O   0  0  0  0  0  0  0  0  0  0  0  0
   -3.3605   -0.4760   -5.8295 O   0  0  0  0  0  0  0  0  0  0  0  0
   -3.3211   -1.3497   -6.9024 C   0  0  0  0  0  0  0  0  0  0  0  0
   -1.9012   -1.8721   -6.9113 C   0  0  0  0  0  0  0  0  0  0  0  0
   -0.8856   -1.4362   -7.6725 C   0  0  0  0  0  0  0  0  0  0  0  0
    0.3832   -2.0225   -7.4911 C   0  0  0  0  0  0  0  0  0  0  0  0
    0.6088   -3.0015   -6.5793 C   0  0  0  0  0  0  0  0  0  0  0  0
   -0.4740   -3.4413   -5.7914 C   0  0  0  0  0  0  0  0  0  0  0  0
   -1.7061   -2.8860   -5.9578 C   0  0  0  0  0  0  0  0  0  0  0  0
    1.8269   -3.6665   -6.2915 N   0  0  0  0  0  0  0  0  0  0  0  0
    2.6880   -3.0628   -5.3615 C   0  0  0  0  0  0  0  0  0  0  0  0
    2.2356   -1.9200   -4.9123 O   0  0  0  0  0  0  0  0  0  0  0  0
    3.9465   -3.4808   -4.8316 C   0  0  1  0  0  0  0  0  0  0  0  0
    5.0128   -4.1682   -5.5778 C   0  0  0  0  0  0  0  0  0  0  0  0
    4.6919   -5.5063   -6.1573 C   0  0  0  0  0  0  0  0  0  0  0  0
    4.1356   -6.4502   -5.1204 C   0  0  0  0  0  0  0  0  0  0  0  0
    4.9882   -6.6688   -3.9893 N   0  0  0  0  0  0  0  0  0  0  0  0
    4.5129   -7.5340   -2.9607 C   0  0  0  0  0  0  0  0  0  0  0  0
    3.3844   -8.0568   -3.1109 O   0  0  0  0  0  0  0  0  0  0  0  0
    5.2282   -7.8347   -1.7825 N   0  0  0  0  0  0  0  0  0  0  0  0
    4.4859   -2.3883   -3.9801 N   0  0  0  0  0  0  0  0  0  0  0  0
    4.8703   -2.6627   -2.6559 C   0  0  0  0  0  0  0  0  0  0  0  0
    4.7982   -3.8223   -2.1253 O   0  0  0  0  0  0  0  0  0  0  0  0
    5.4081   -1.6050   -1.7216 C   0  0  1  0  0  0  0  0  0  0  0  0
    6.8898   -1.7666   -1.5046 C   0  0  0  0  0  0  0  0  0  0  0  0
    7.2848   -3.0799   -0.8923 C   0  0  0  0  0  0  0  0  0  0  0  0
    7.3400   -0.6492   -0.5718 C   0  0  0  0  0  0  0  0  0  0  0  0
    5.2420   -0.2705   -2.2995 N   0  0  0  0  0  0  0  0  0  0  0  0
    4.3312    0.5908   -1.5905 C   0  0  0  0  0  0  0  0  0  0  0  0
    3.7940    0.0982   -0.5838 O   0  0  0  0  0  0  0  0  0  0  0  0
    4.0519    1.9688   -2.0268 C   0  0  0  0  0  0  0  0  0  0  0  0
    3.0990    2.7020   -1.1161 C   0  0  0  0  0  0  0  0  0  0  0  0
    3.5533    2.8751    0.2793 C   0  0  0  0  0  0  0  0  0  0  0  0
    4.8033    3.5772    0.5757 C   0  0  0  0  0  0  0  0  0  0  0  0
    5.0198    4.9978    0.2848 C   0  0  0  0  0  0  0  0  0  0  0  0
    4.9005    5.4409   -1.0652 N   0  0  0  0  0  0  0  0  0  0  0  0
    3.7949    6.0130   -1.7794 C   0  0  0  0  0  0  0  0  0  0  0  0
    2.6849    6.2177   -1.2327 O   0  0  0  0  0  0  0  0  0  0  0  0
    4.1773    6.2897   -3.1525 C   0  0  0  0  0  0  0  0  0  0  0  0
    5.4402    5.9263   -3.3217 C   0  0  0  0  0  0  0  0  0  0  0  0
    5.9435    5.3886   -2.0592 C   0  0  0  0  0  0  0  0  0  0  0  0
    7.1252    4.9482   -1.8745 O   0  0  0  0  0  0  0  0  0  0  0  0
   -5.9048    5.0809    1.3404 H   0  0  0  0  0  0  0  0  0  0  0  0
   -4.7675    5.2092   -0.0230 H   0  0  0  0  0  0  0  0  0  0  0  0
   -4.3958    6.1279    1.4345 H   0  0  0  0  0  0  0  0  0  0  0  0
   -3.0678    4.3514    2.1237 H   0  0  0  0  0  0  0  0  0  0  0  0
   -3.7288    3.3047    0.8603 H   0  0  0  0  0  0  0  0  0  0  0  0
   -5.8477    3.1395    2.3111 H   0  0  0  0  0  0  0  0  0  0  0  0
   -4.3267    4.3384    4.5923 H   0  0  0  0  0  0  0  0  0  0  0  0
   -4.7835    5.4567    3.3205 H   0  0  0  0  0  0  0  0  0  0  0  0
   -6.1016    4.6103    4.0916 H   0  0  0  0  0  0  0  0  0  0  0  0
   -3.3306    2.6372    3.9692 H   0  0  0  0  0  0  0  0  0  0  0  0
   -5.6658    0.6979    4.1131 H   0  0  0  0  0  0  0  0  0  0  0  0
   -4.8660    0.6362    6.3276 H   0  0  0  0  0  0  0  0  0  0  0  0
   -3.7263    1.9414    5.9995 H   0  0  0  0  0  0  0  0  0  0  0  0
   -4.5152   -2.2814    4.5656 H   0  0  0  0  0  0  0  0  0  0  0  0
   -4.2565   -0.8597    3.4224 H   0  0  0  0  0  0  0  0  0  0  0  0
   -3.1533   -2.2012    1.9315 H   0  0  0  0  0  0  0  0  0  0  0  0
   -3.2899   -3.5796    3.1738 H   0  0  0  0  0  0  0  0  0  0  0  0
   -1.0053   -3.3072    3.2332 H   0  0  0  0  0  0  0  0  0  0  0  0
   -1.1779   -1.4895    2.9410 H   0  0  0  0  0  0  0  0  0  0  0  0
   -2.6051   -3.1718    5.0158 H   0  0  0  0  0  0  0  0  0  0  0  0
   -0.4905   -3.6224    5.5247 H   0  0  0  0  0  0  0  0  0  0  0  0
    0.0512   -0.9838    7.0219 H   0  0  0  0  0  0  0  0  0  0  0  0
    0.4419   -2.8574    8.2227 H   0  0  0  0  0  0  0  0  0  0  0  0
    1.9561   -2.1670    7.6597 H   0  0  0  0  0  0  0  0  0  0  0  0
    1.3548   -3.6876    6.8514 H   0  0  0  0  0  0  0  0  0  0  0  0
    2.5055   -0.4389    6.8540 H   0  0  0  0  0  0  0  0  0  0  0  0
    3.2883   -0.2335    3.9075 H   0  0  0  0  0  0  0  0  0  0  0  0
    4.9890   -0.9392    6.2668 H   0  0  0  0  0  0  0  0  0  0  0  0
    5.6140   -0.5106    4.6563 H   0  0  0  0  0  0  0  0  0  0  0  0
    4.6033   -2.0370    4.9195 H   0  0  0  0  0  0  0  0  0  0  0  0
    4.6773    1.6797    4.9611 H   0  0  0  0  0  0  0  0  0  0  0  0
    1.4776    1.2362    4.0896 H   0  0  0  0  0  0  0  0  0  0  0  0
   -0.3067    2.9900    4.3169 H   0  0  0  0  0  0  0  0  0  0  0  0
   -0.1141    4.8563    5.8239 H   0  0  0  0  0  0  0  0  0  0  0  0
    1.9567    5.0497    7.2052 H   0  0  0  0  0  0  0  0  0  0  0  0
    3.7083    3.3920    7.0178 H   0  0  0  0  0  0  0  0  0  0  0  0
    3.4911    1.3000    7.4547 H   0  0  0  0  0  0  0  0  0  0  0  0
   -2.0501   -4.9047    6.4581 H   0  0  0  0  0  0  0  0  0  0  0  0
   -0.5516   -4.8641    7.5265 H   0  0  0  0  0  0  0  0  0  0  0  0
   -2.1563   -4.5538    8.1737 H   0  0  0  0  0  0  0  0  0  0  0  0
   -7.4595    1.8763    4.0986 H   0  0  0  0  0  0  0  0  0  0  0  0
   -7.5537    2.9153    5.5274 H   0  0  0  0  0  0  0  0  0  0  0  0
   -7.1204    1.2022    5.6849 H   0  0  0  0  0  0  0  0  0  0  0  0
   -1.6598    1.2723    3.4444 H   0  0  0  0  0  0  0  0  0  0  0  0
   -1.5245    2.3205    2.0167 H   0  0  0  0  0  0  0  0  0  0  0  0
   -1.5641    0.5642    1.8127 H   0  0  0  0  0  0  0  0  0  0  0  0
   -5.0876   -0.4407   -0.0548 H   0  0  0  0  0  0  0  0  0  0  0  0
   -6.7208    1.0430    2.0462 H   0  0  0  0  0  0  0  0  0  0  0  0
   -8.5093    0.1800    0.9962 H   0  0  0  0  0  0  0  0  0  0  0  0
   -7.8293    1.3545   -0.1546 H   0  0  0  0  0  0  0  0  0  0  0  0
   -7.6121   -0.4748   -0.3956 H   0  0  0  0  0  0  0  0  0  0  0  0
   -7.2012   -1.6874    1.2613 H   0  0  0  0  0  0  0  0  0  0  0  0
   -6.5796   -1.0681    2.8793 H   0  0  0  0  0  0  0  0  0  0  0  0
   -5.4781   -1.5390    1.5388 H   0  0  0  0  0  0  0  0  0  0  0  0
   -5.7721    2.3769   -0.6379 H   0  0  0  0  0  0  0  0  0  0  0  0
   -6.1629    1.2300   -3.8107 H   0  0  0  0  0  0  0  0  0  0  0  0
   -4.2979    3.5600   -3.1290 H   0  0  0  0  0  0  0  0  0  0  0  0
   -7.1463    2.9192   -2.4480 H   0  0  0  0  0  0  0  0  0  0  0  0
   -7.0044    4.4142   -3.3788 H   0  0  0  0  0  0  0  0  0  0  0  0
   -6.0949    4.3451   -1.8685 H   0  0  0  0  0  0  0  0  0  0  0  0
   -4.9678    4.4259   -5.1422 H   0  0  0  0  0  0  0  0  0  0  0  0
   -6.5346    3.5959   -5.1116 H   0  0  0  0  0  0  0  0  0  0  0  0
   -5.1050    2.6755   -5.5729 H   0  0  0  0  0  0  0  0  0  0  0  0
   -2.5009    0.6439   -3.0034 H   0  0  0  0  0  0  0  0  0  0  0  0
   -2.1485    1.1402   -4.6866 H   0  0  0  0  0  0  0  0  0  0  0  0
   -2.6827    2.4013   -3.4852 H   0  0  0  0  0  0  0  0  0  0  0  0
   -4.0252   -2.1851   -6.7004 H   0  0  0  0  0  0  0  0  0  0  0  0
   -3.4647   -0.8760   -7.8934 H   0  0  0  0  0  0  0  0  0  0  0  0
   -1.0555   -0.6660   -8.3983 H   0  0  0  0  0  0  0  0  0  0  0  0
    1.2374   -1.6965   -8.0957 H   0  0  0  0  0  0  0  0  0  0  0  0
   -0.3503   -4.2190   -5.0474 H   0  0  0  0  0  0  0  0  0  0  0  0
   -2.5274   -3.2406   -5.3397 H   0  0  0  0  0  0  0  0  0  0  0  0
    2.0749   -4.5573   -6.7293 H   0  0  0  0  0  0  0  0  0  0  0  0
    3.7222   -4.2934   -3.9749 H   0  0  0  0  0  0  0  0  0  0  0  0
    5.8824   -4.2965   -4.8606 H   0  0  0  0  0  0  0  0  0  0  0  0
    5.3429   -3.5284   -6.4402 H   0  0  0  0  0  0  0  0  0  0  0  0
    4.0611   -5.4484   -7.0165 H   0  0  0  0  0  0  0  0  0  0  0  0
    5.7020   -5.9532   -6.4276 H   0  0  0  0  0  0  0  0  0  0  0  0
    3.1202   -6.1372   -4.7967 H   0  0  0  0  0  0  0  0  0  0  0  0
    4.0082   -7.4324   -5.6453 H   0  0  0  0  0  0  0  0  0  0  0  0
    5.9307   -6.2204   -3.8871 H   0  0  0  0  0  0  0  0  0  0  0  0
    6.0287   -7.2334   -1.4688 H   0  0  0  0  0  0  0  0  0  0  0  0
    4.9773   -8.6581   -1.2011 H   0  0  0  0  0  0  0  0  0  0  0  0
    4.5804   -1.4316   -4.3621 H   0  0  0  0  0  0  0  0  0  0  0  0
    4.9082   -1.7138   -0.7613 H   0  0  0  0  0  0  0  0  0  0  0  0
    7.4581   -1.5803   -2.4547 H   0  0  0  0  0  0  0  0  0  0  0  0
    6.8334   -3.2126    0.1151 H   0  0  0  0  0  0  0  0  0  0  0  0
    8.3880   -3.1296   -0.7452 H   0  0  0  0  0  0  0  0  0  0  0  0
    7.0419   -3.8984   -1.5744 H   0  0  0  0  0  0  0  0  0  0  0  0
    7.2678    0.3470   -1.0299 H   0  0  0  0  0  0  0  0  0  0  0  0
    6.7685   -0.7242    0.3681 H   0  0  0  0  0  0  0  0  0  0  0  0
    8.4233   -0.8120   -0.3002 H   0  0  0  0  0  0  0  0  0  0  0  0
    5.7310    0.0430   -3.1370 H   0  0  0  0  0  0  0  0  0  0  0  0
    5.0017    2.4834   -2.2145 H   0  0  0  0  0  0  0  0  0  0  0  0
    3.5369    1.9017   -3.0123 H   0  0  0  0  0  0  0  0  0  0  0  0
    2.6265    3.5249   -1.6276 H   0  0  0  0  0  0  0  0  0  0  0  0
    2.2249    1.9308   -1.0206 H   0  0  0  0  0  0  0  0  0  0  0  0
    3.5937    1.8758    0.7823 H   0  0  0  0  0  0  0  0  0  0  0  0
    2.6676    3.3615    0.8220 H   0  0  0  0  0  0  0  0  0  0  0  0
    4.9851    3.3899    1.7032 H   0  0  0  0  0  0  0  0  0  0  0  0
    5.6656    2.9813    0.1352 H   0  0  0  0  0  0  0  0  0  0  0  0
    6.1016    5.2442    0.5740 H   0  0  0  0  0  0  0  0  0  0  0  0
    4.4453    5.6811    0.9774 H   0  0  0  0  0  0  0  0  0  0  0  0
    3.4869    6.7333   -3.8821 H   0  0  0  0  0  0  0  0  0  0  0  0
    5.9525    6.0424   -4.2818 H   0  0  0  0  0  0  0  0  0  0  0  0
  1  2  1  0
  2  3  1  0
  3  4  1  0
  3  5  1  0
  5  6  1  0
  6  7  1  0
  7  8  1  0
  8  9  2  0
  8 10  1  0
 10 11  1  0
 11 12  1  0
 12 13  1  0
 13 14  1  0
 14 15  1  0
 15 16  1  0
 16 17  1  0
 16 18  1  0
 18 19  2  0
 18 20  1  0
 20 21  1  0
 21 22  1  0
 21 23  1  0
 23 24  1  0
 24 25  2  0
 25 26  1  0
 26 27  2  0
 27 28  1  0
 28 29  2  0
 23 30  1  0
 15 31  1  0
 31 32  1  0
  6 33  1  0
 33 34  1  0
  5 35  1  0
 35 36  1  0
 35 37  1  0
 37 38  2  0
 37 39  1  0
 39 40  1  0
 40 41  1  0
 40 42  1  0
 39 43  1  0
 43 44  1  0
 44 45  2  0
 44 46  1  0
 46 47  1  0
 47 48  1  0
 47 49  1  0
 46 50  1  0
 50 51  1  0
 50 52  1  0
 52 53  2  0
 52 54  1  0
 54 55  1  0
 55 56  1  0
 56 57  1  0
 57 58  2  0
 58 59  1  0
 59 60  2  0
 60 61  1  0
 59 62  1  0
 62 63  1  0
 63 64  2  0
 63 65  1  0
 65 66  1  0
 66 67  1  0
 67 68  1  0
 68 69  1  0
 69 70  1  0
 70 71  2  0
 70 72  1  0
 65 73  1  0
 73 74  1  0
 74 75  2  0
 74 76  1  0
 76 77  1  0
 77 78  1  0
 77 79  1  0
 76 80  1  0
 80 81  1  0
 81 82  2  0
 81 83  1  0
 83 84  1  0
 84 85  1  0
 85 86  1  0
 86 87  1  0
 87 88  1  0
 88 89  1  0
 89 90  2  0
 89 91  1  0
 91 92  2  0
 92 93  1  0
 93 94  2  0
 14 10  1  0
 29 24  1  0
 61 56  2  0
 93 88  1  0
  1 95  1  0
  1 96  1  0
  1 97  1  0
  2 98  1  0
  2 99  1  0
  3100  1  6
  4101  1  0
  4102  1  0
  4103  1  0
  5104  1  1
  6105  1  6
  7106  1  0
  7107  1  0
 11108  1  0
 11109  1  0
 12110  1  0
 12111  1  0
 13112  1  0
 13113  1  0
 14114  1  1
 15115  1  6
 16116  1  1
 17117  1  0
 17118  1  0
 17119  1  0
 20120  1  0
 21121  1  6
 22122  1  0
 22123  1  0
 22124  1  0
 23125  1  6
 25126  1  0
 26127  1  0
 27128  1  0
 28129  1  0
 29130  1  0
 30131  1  0
 32132  1  0
 32133  1  0
 32134  1  0
 34135  1  0
 34136  1  0
 34137  1  0
 36138  1  0
 36139  1  0
 36140  1  0
 39141  1  6
 40142  1  0
 41143  1  0
 41144  1  0
 41145  1  0
 42146  1  0
 42147  1  0
 42148  1  0
 43149  1  0
 46150  1  6
 47151  1  0
 48152  1  0
 48153  1  0
 48154  1  0
 49155  1  0
 49156  1  0
 49157  1  0
 51158  1  0
 51159  1  0
 51160  1  0
 55161  1  0
 55162  1  0
 57163  1  0
 58164  1  0
 60165  1  0
 61166  1  0
 62167  1  0
 65168  1  1
 66169  1  0
 66170  1  0
 67171  1  0
 67172  1  0
 68173  1  0
 68174  1  0
 69175  1  0
 72176  1  0
 72177  1  0
 73178  1  0
 76179  1  1
 77180  1  0
 78181  1  0
 78182  1  0
 78183  1  0
 79184  1  0
 79185  1  0
 79186  1  0
 80187  1  0
 83188  1  0
 83189  1  0
 84190  1  0
 84191  1  0
 85192  1  0
 85193  1  0
 86194  1  0
 86195  1  0
 87196  1  0
 87197  1  0
 91198  1  0
 92199  1  0
M  END
$$$$

     RDKit          3D

199202  0  0  0  0  0  0  0  0999 V2000
   -4.0408   -7.1461    0.8490 C   0  0  0  0  0  0  0  0  0  0  0  0
   -2.9859   -6.0241    0.9106 C   0  0  0  0  0  0  0  0  0  0  0  0
   -3.6641   -4.7138    0.7006 C   0  0  2  0  0  0  0  0  0  0  0  0
   -4.3248   -4.6811   -0.6297 C   0  0  0  0  0  0  0  0  0  0  0  0
   -2.8280   -3.4941    1.0765 C   0  0  1  0  0  0  0  0  0  0  0  0
   -1.5866   -3.3778    0.3272 C   0  0  1  0  0  0  0  0  0  0  0  0
   -0.3908   -4.1297    0.8604 C   0  0  0  0  0  0  0  0  0  0  0  0
    0.0134   -3.6139    2.2014 C   0  0  0  0  0  0  0  0  0  0  0  0
   -0.6215   -2.5985    2.6140 O   0  0  0  0  0  0  0  0  0  0  0  0
    1.0472   -4.2129    2.9684 N   0  0  0  0  0  0  0  0  0  0  0  0
    1.7970   -5.4475    2.6693 C   0  0  0  0  0  0  0  0  0  0  0  0
    2.0397   -5.9988    4.0827 C   0  0  0  0  0  0  0  0  0  0  0  0
    2.2681   -4.7400    4.8742 C   0  0  0  0  0  0  0  0  0  0  0  0
    1.5728   -3.6481    4.1859 C   0  0  1  0  0  0  0  0  0  0  0  0
    2.4834   -2.4516    3.8708 C   0  0  1  0  0  0  0  0  0  0  0  0
    2.6321   -1.5031    5.0040 C   0  0  1  0  0  0  0  0  0  0  0  0
    3.1835   -2.1617    6.2642 C   0  0  0  0  0  0  0  0  0  0  0  0
    3.5861   -0.3790    4.6514 C   0  0  0  0  0  0  0  0  0  0  0  0
    4.2501   -0.3763    3.5921 O   0  0  0  0  0  0  0  0  0  0  0  0
    3.7675    0.7333    5.5258 N   0  0  0  0  0  0  0  0  0  0  0  0
    4.7057    1.7671    5.1365 C   0  0  2  0  0  0  0  0  0  0  0  0
    5.6319    2.1286    6.2647 C   0  0  0  0  0  0  0  0  0  0  0  0
    3.9943    2.9808    4.6586 C   0  0  1  0  0  0  0  0  0  0  0  0
    4.8670    4.0624    4.1426 C   0  0  0  0  0  0  0  0  0  0  0  0
    4.2622    5.2711    3.7768 C   0  0  0  0  0  0  0  0  0  0  0  0
    5.0438    6.2935    3.2628 C   0  0  0  0  0  0  0  0  0  0  0  0
    6.4047    6.1887    3.0880 C   0  0  0  0  0  0  0  0  0  0  0  0
    6.9899    4.9953    3.4512 C   0  0  0  0  0  0  0  0  0  0  0  0
    6.2281    3.9545    3.9683 C   0  0  0  0  0  0  0  0  0  0  0  0
    3.1070    2.7151    3.6009 O   0  0  0  0  0  0  0  0  0  0  0  0
    3.5450   -2.7358    3.0873 O   0  0  0  0  0  0  0  0  0  0  0  0
    3.5176   -2.4058    1.7705 C   0  0  0  0  0  0  0  0  0  0  0  0
   -1.6075   -3.3275   -1.0440 O   0  0  0  0  0  0  0  0  0  0  0  0
   -1.0477   -2.1581   -1.5671 C   0  0  0  0  0  0  0  0  0  0  0  0
   -3.7590   -2.3600    1.0026 N   0  0  0  0  0  0  0  0  0  0  0  0
   -4.0860   -1.6674   -0.2010 C   0  0  0  0  0  0  0  0  0  0  0  0
   -4.3368   -1.9795    2.2355 C   0  0  0  0  0  0  0  0  0  0  0  0
   -4.0796   -2.7675    3.2206 O   0  0  0  0  0  0  0  0  0  0  0  0
   -5.1847   -0.8259    2.5520 C   0  0  1  0  0  0  0  0  0  0  0  0
   -5.0603   -0.4515    4.0349 C   0  0  0  0  0  0  0  0  0  0  0  0
   -5.9496    0.7498    4.3450 C   0  0  0  0  0  0  0  0  0  0  0  0
   -5.4910   -1.5791    4.9198 C   0  0  0  0  0  0  0  0  0  0  0  0
   -4.8758    0.2963    1.7137 N   0  0  0  0  0  0  0  0  0  0  0  0
   -5.6873    1.0303    0.8472 C   0  0  0  0  0  0  0  0  0  0  0  0
   -6.8957    0.8487    0.6074 O   0  0  0  0  0  0  0  0  0  0  0  0
   -4.9314    2.1887    0.1266 C   0  0  1  0  0  0  0  0  0  0  0  0
   -5.8561    2.8428   -0.7691 C   0  0  0  0  0  0  0  0  0  0  0  0
   -5.2342    4.0096   -1.5373 C   0  0  0  0  0  0  0  0  0  0  0  0
   -7.1921    3.2210   -0.1774 C   0  0  0  0  0  0  0  0  0  0  0  0
   -4.1591    2.8964    1.0747 N   0  0  0  0  0  0  0  0  0  0  0  0
   -4.7888    3.9541    1.8414 C   0  0  0  0  0  0  0  0  0  0  0  0
   -2.7678    2.6619    1.3559 C   0  0  0  0  0  0  0  0  0  0  0  0
   -2.2576    1.6837    0.7673 O   0  0  0  0  0  0  0  0  0  0  0  0
   -2.0277    3.4373    2.2141 O   0  0  0  0  0  0  0  0  0  0  0  0
   -0.7041    3.2314    2.6200 C   0  0  0  0  0  0  0  0  0  0  0  0
    0.2867    3.0426    1.5569 C   0  0  0  0  0  0  0  0  0  0  0  0
    0.9652    3.9954    0.8599 C   0  0  0  0  0  0  0  0  0  0  0  0
    1.9163    3.6456   -0.1216 C   0  0  0  0  0  0  0  0  0  0  0  0
    2.1680    2.3384   -0.3858 C   0  0  0  0  0  0  0  0  0  0  0  0
    1.4849    1.3303    0.3152 C   0  0  0  0  0  0  0  0  0  0  0  0
    0.5706    1.6900    1.2593 C   0  0  0  0  0  0  0  0  0  0  0  0
    3.0971    1.8311   -1.3420 N   0  0  0  0  0  0  0  0  0  0  0  0
    2.6430    1.6819   -2.6641 C   0  0  0  0  0  0  0  0  0  0  0  0
    1.4492    2.0349   -2.9357 O   0  0  0  0  0  0  0  0  0  0  0  0
    3.4681    1.1317   -3.7799 C   0  0  1  0  0  0  0  0  0  0  0  0
    3.5513   -0.3615   -3.4888 C   0  0  0  0  0  0  0  0  0  0  0  0
    4.3440   -1.1434   -4.4780 C   0  0  0  0  0  0  0  0  0  0  0  0
    4.3434   -2.6300   -4.1225 C   0  0  0  0  0  0  0  0  0  0  0  0
    4.8988   -2.8896   -2.8124 N   0  0  0  0  0  0  0  0  0  0  0  0
    4.9843   -4.2251   -2.2888 C   0  0  0  0  0  0  0  0  0  0  0  0
    4.5712   -5.2182   -2.9697 O   0  0  0  0  0  0  0  0  0  0  0  0
    5.5409   -4.4463   -0.9839 N   0  0  0  0  0  0  0  0  0  0  0  0
    2.6986    1.3400   -5.0212 N   0  0  0  0  0  0  0  0  0  0  0  0
    3.3743    2.0375   -6.0506 C   0  0  0  0  0  0  0  0  0  0  0  0
    4.5738    2.4542   -5.9337 O   0  0  0  0  0  0  0  0  0  0  0  0
    2.6640    2.3102   -7.3368 C   0  0  1  0  0  0  0  0  0  0  0  0
    3.4651    1.8603   -8.5279 C   0  0  0  0  0  0  0  0  0  0  0  0
    3.7435    0.3644   -8.4753 C   0  0  0  0  0  0  0  0  0  0  0  0
    2.8623    2.3025   -9.8310 C   0  0  0  0  0  0  0  0  0  0  0  0
    1.3094    1.8426   -7.3258 N   0  0  0  0  0  0  0  0  0  0  0  0
    0.2694    2.7761   -6.9708 C   0  0  0  0  0  0  0  0  0  0  0  0
    0.6071    3.9332   -6.6898 O   0  0  0  0  0  0  0  0  0  0  0  0
   -1.1298    2.2935   -6.9618 C   0  0  0  0  0  0  0  0  0  0  0  0
   -2.0754    3.3214   -6.3742 C   0  0  0  0  0  0  0  0  0  0  0  0
   -1.7583    3.6410   -4.9493 C   0  0  0  0  0  0  0  0  0  0  0  0
   -2.6828    4.6687   -4.3441 C   0  0  0  0  0  0  0  0  0  0  0  0
   -2.6175    5.9956   -5.0708 C   0  0  0  0  0  0  0  0  0  0  0  0
   -3.5161    6.9628   -4.4572 N   0  0  0  0  0  0  0  0  0  0  0  0
   -4.8626    7.2609   -4.7220 C   0  0  0  0  0  0  0  0  0  0  0  0
   -5.5616    6.7004   -5.6000 O   0  0  0  0  0  0  0  0  0  0  0  0
   -5.3068    8.3112   -3.8244 C   0  0  0  0  0  0  0  0  0  0  0  0
   -4.3005    8.6676   -3.0256 C   0  0  0  0  0  0  0  0  0  0  0  0
   -3.1345    7.8444   -3.3816 C   0  0  0  0  0  0  0  0  0  0  0  0
   -1.9961    7.8997   -2.8389 O   0  0  0  0  0  0  0  0  0  0  0  0
   -3.7394   -7.9873    1.4998 H   0  0  0  0  0  0  0  0  0  0  0  0
   -4.1673   -7.5416   -0.1661 H   0  0  0  0  0  0  0  0  0  0  0  0
   -5.0292   -6.7676    1.2111 H   0  0  0  0  0  0  0  0  0  0  0  0
   -2.3700   -6.2293   -0.0206 H   0  0  0  0  0  0  0  0  0  0  0  0
   -2.4489   -6.1651    1.8412 H   0  0  0  0  0  0  0  0  0  0  0  0
   -4.5109   -4.6877    1.4602 H   0  0  0  0  0  0  0  0  0  0  0  0
   -5.2001   -4.0065   -0.7152 H   0  0  0  0  0  0  0  0  0  0  0  0
   -4.7973   -5.7143   -0.8133 H   0  0  0  0  0  0  0  0  0  0  0  0
   -3.6409   -4.4614   -1.4634 H   0  0  0  0  0  0  0  0  0  0  0  0
   -2.6663   -3.6784    2.1758 H   0  0  0  0  0  0  0  0  0  0  0  0
   -1.1633   -2.2590    0.5334 H   0  0  0  0  0  0  0  0  0  0  0  0
    0.5119   -3.9282    0.2077 H   0  0  0  0  0  0  0  0  0  0  0  0
   -0.4863   -5.2179    0.8655 H   0  0  0  0  0  0  0  0  0  0  0  0
    1.1019   -6.1530    2.1884 H   0  0  0  0  0  0  0  0  0  0  0  0
    2.7443   -5.2866    2.1709 H   0  0  0  0  0  0  0  0  0  0  0  0
    1.1661   -6.5400    4.4561 H   0  0  0  0  0  0  0  0  0  0  0  0
    2.9507   -6.6254    4.0430 H   0  0  0  0  0  0  0  0  0  0  0  0
    3.3653   -4.5562    4.8175 H   0  0  0  0  0  0  0  0  0  0  0  0
    1.9366   -4.9254    5.9193 H   0  0  0  0  0  0  0  0  0  0  0  0
    0.6565   -3.2775    4.7335 H   0  0  0  0  0  0  0  0  0  0  0  0
    1.7890   -1.8872    3.1320 H   0  0  0  0  0  0  0  0  0  0  0  0
    1.7007   -1.0093    5.3010 H   0  0  0  0  0  0  0  0  0  0  0  0
    2.4303   -2.7701    6.8014 H   0  0  0  0  0  0  0  0  0  0  0  0
    4.0821   -2.7445    6.1306 H   0  0  0  0  0  0  0  0  0  0  0  0
    3.4175   -1.3000    6.9610 H   0  0  0  0  0  0  0  0  0  0  0  0
    3.2229    0.7828    6.4380 H   0  0  0  0  0  0  0  0  0  0  0  0
    5.3021    1.3719    4.3086 H   0  0  0  0  0  0  0  0  0  0  0  0
    5.2030    1.8687    7.2629 H   0  0  0  0  0  0  0  0  0  0  0  0
    6.6150    1.7020    6.1006 H   0  0  0  0  0  0  0  0  0  0  0  0
    5.7192    3.2307    6.2899 H   0  0  0  0  0  0  0  0  0  0  0  0
    3.3891    3.4003    5.4794 H   0  0  0  0  0  0  0  0  0  0  0  0
    3.2129    5.4507    3.8740 H   0  0  0  0  0  0  0  0  0  0  0  0
    4.6079    7.2611    2.9633 H   0  0  0  0  0  0  0  0  0  0  0  0
    7.0044    7.0041    2.6825 H   0  0  0  0  0  0  0  0  0  0  0  0
    8.0767    4.8751    3.3257 H   0  0  0  0  0  0  0  0  0  0  0  0
    6.7557    3.0601    4.2061 H   0  0  0  0  0  0  0  0  0  0  0  0
    2.8038    3.5695    3.2063 H   0  0  0  0  0  0  0  0  0  0  0  0
    4.4543   -2.6568    1.2025 H   0  0  0  0  0  0  0  0  0  0  0  0
    2.7751   -3.1289    1.2925 H   0  0  0  0  0  0  0  0  0  0  0  0
    3.1748   -1.4392    1.4502 H   0  0  0  0  0  0  0  0  0  0  0  0
   -1.0782   -2.1082   -2.6590 H   0  0  0  0  0  0  0  0  0  0  0  0
    0.0538   -2.2508   -1.3142 H   0  0  0  0  0  0  0  0  0  0  0  0
   -1.3873   -1.2618   -1.0434 H   0  0  0  0  0  0  0  0  0  0  0  0
   -3.8210   -2.2029   -1.1491 H   0  0  0  0  0  0  0  0  0  0  0  0
   -3.6146   -0.6383   -0.2270 H   0  0  0  0  0  0  0  0  0  0  0  0
   -5.1722   -1.5083   -0.2786 H   0  0  0  0  0  0  0  0  0  0  0  0
   -6.2873   -1.1022    2.4624 H   0  0  0  0  0  0  0  0  0  0  0  0
   -4.0351   -0.1738    4.2921 H   0  0  0  0  0  0  0  0  0  0  0  0
   -6.2547    0.7386    5.4290 H   0  0  0  0  0  0  0  0  0  0  0  0
   -6.9157    0.6266    3.7858 H   0  0  0  0  0  0  0  0  0  0  0  0
   -5.4587    1.7098    4.1634 H   0  0  0  0  0  0  0  0  0  0  0  0
   -6.1767   -2.3056    4.4241 H   0  0  0  0  0  0  0  0  0  0  0  0
   -4.6115   -2.0846    5.3931 H   0  0  0  0  0  0  0  0  0  0  0  0
   -6.0804   -1.1858    5.7854 H   0  0  0  0  0  0  0  0  0  0  0  0
   -3.8413    0.5958    1.7852 H   0  0  0  0  0  0  0  0  0  0  0  0
   -4.1655    1.5753   -0.4739 H   0  0  0  0  0  0  0  0  0  0  0  0
   -6.1199    2.0987   -1.5851 H   0  0  0  0  0  0  0  0  0  0  0  0
   -5.9048    4.9172   -1.4754 H   0  0  0  0  0  0  0  0  0  0  0  0
   -4.2057    4.2197   -1.1728 H   0  0  0  0  0  0  0  0  0  0  0  0
   -5.1485    3.8162   -2.6237 H   0  0  0  0  0  0  0  0  0  0  0  0
   -8.0307    2.5542   -0.5107 H   0  0  0  0  0  0  0  0  0  0  0  0
   -7.4709    4.2129   -0.6381 H   0  0  0  0  0  0  0  0  0  0  0  0
   -7.2336    3.2107    0.9126 H   0  0  0  0  0  0  0  0  0  0  0  0
   -4.0594    4.5152    2.4587 H   0  0  0  0  0  0  0  0  0  0  0  0
   -5.2532    4.7199    1.1867 H   0  0  0  0  0  0  0  0  0  0  0  0
   -5.4969    3.4679    2.5418 H   0  0  0  0  0  0  0  0  0  0  0  0
   -0.4172    4.1272    3.2512 H   0  0  0  0  0  0  0  0  0  0  0  0
   -0.7152    2.3394    3.3062 H   0  0  0  0  0  0  0  0  0  0  0  0
    0.7474    5.0296    1.0850 H   0  0  0  0  0  0  0  0  0  0  0  0
    2.4552    4.3936   -0.6737 H   0  0  0  0  0  0  0  0  0  0  0  0
    1.6744    0.2756    0.1141 H   0  0  0  0  0  0  0  0  0  0  0  0
    0.0714    0.8845    1.7947 H   0  0  0  0  0  0  0  0  0  0  0  0
    4.0830    1.5722   -1.0991 H   0  0  0  0  0  0  0  0  0  0  0  0
    4.4084    1.6466   -3.8237 H   0  0  0  0  0  0  0  0  0  0  0  0
    4.0412   -0.4531   -2.4911 H   0  0  0  0  0  0  0  0  0  0  0  0
    2.5227   -0.7431   -3.3768 H   0  0  0  0  0  0  0  0  0  0  0  0
    3.9519   -1.0905   -5.5045 H   0  0  0  0  0  0  0  0  0  0  0  0
    5.4080   -0.8383   -4.5317 H   0  0  0  0  0  0  0  0  0  0  0  0
    3.3097   -3.0368   -4.1366 H   0  0  0  0  0  0  0  0  0  0  0  0
    4.9476   -3.2057   -4.8457 H   0  0  0  0  0  0  0  0  0  0  0  0
    5.2637   -2.1393   -2.1728 H   0  0  0  0  0  0  0  0  0  0  0  0
    4.8898   -4.7253   -0.1951 H   0  0  0  0  0  0  0  0  0  0  0  0
    6.5683   -4.3388   -0.7880 H   0  0  0  0  0  0  0  0  0  0  0  0
    1.7406    0.9964   -5.1072 H   0  0  0  0  0  0  0  0  0  0  0  0
    2.6263    3.4208   -7.3562 H   0  0  0  0  0  0  0  0  0  0  0  0
    4.4985    2.3119   -8.5165 H   0  0  0  0  0  0  0  0  0  0  0  0
    4.6468    0.1751   -7.8213 H   0  0  0  0  0  0  0  0  0  0  0  0
    3.9855   -0.0209   -9.4751 H   0  0  0  0  0  0  0  0  0  0  0  0
    2.9365   -0.2032   -7.9683 H   0  0  0  0  0  0  0  0  0  0  0  0
    3.6342    2.6888  -10.5602 H   0  0  0  0  0  0  0  0  0  0  0  0
    2.3510    1.4789  -10.3883 H   0  0  0  0  0  0  0  0  0  0  0  0
    2.1641    3.1734   -9.6909 H   0  0  0  0  0  0  0  0  0  0  0  0
    1.0624    0.8348   -7.5742 H   0  0  0  0  0  0  0  0  0  0  0  0
   -1.2570    1.3629   -6.3710 H   0  0  0  0  0  0  0  0  0  0  0  0
   -1.4337    2.0790   -7.9963 H   0  0  0  0  0  0  0  0  0  0  0  0
   -2.1421    4.2326   -6.9615 H   0  0  0  0  0  0  0  0  0  0  0  0
   -3.0965    2.8599   -6.4097 H   0  0  0  0  0  0  0  0  0  0  0  0
   -1.9238    2.6958   -4.3413 H   0  0  0  0  0  0  0  0  0  0  0  0
   -0.7318    4.0061   -4.8059 H   0  0  0  0  0  0  0  0  0  0  0  0
   -3.7607    4.3361   -4.4801 H   0  0  0  0  0  0  0  0  0  0  0  0
   -2.4337    4.7900   -3.2806 H   0  0  0  0  0  0  0  0  0  0  0  0
   -1.5892    6.3833   -4.9488 H   0  0  0  0  0  0  0  0  0  0  0  0
   -2.9427    5.8990   -6.1236 H   0  0  0  0  0  0  0  0  0  0  0  0
   -6.2763    8.7924   -3.7389 H   0  0  0  0  0  0  0  0  0  0  0  0
   -4.2746    9.4108   -2.2436 H   0  0  0  0  0  0  0  0  0  0  0  0
  1  2  1  0
  2  3  1  0
  3  4  1  0
  3  5  1  0
  5  6  1  0
  6  7  1  0
  7  8  1  0
  8  9  2  0
  8 10  1  0
 10 11  1  0
 11 12  1  0
 12 13  1  0
 13 14  1  0
 14 15  1  0
 15 16  1  0
 16 17  1  0
 16 18  1  0
 18 19  2  0
 18 20  1  0
 20 21  1  0
 21 22  1  0
 21 23  1  0
 23 24  1  0
 24 25  2  0
 25 26  1  0
 26 27  2  0
 27 28  1  0
 28 29  2  0
 23 30  1  0
 15 31  1  0
 31 32  1  0
  6 33  1  0
 33 34  1  0
  5 35  1  0
 35 36  1  0
 35 37  1  0
 37 38  2  0
 37 39  1  0
 39 40  1  0
 40 41  1  0
 40 42  1  0
 39 43  1  0
 43 44  1  0
 44 45  2  0
 44 46  1  0
 46 47  1  0
 47 48  1  0
 47 49  1  0
 46 50  1  0
 50 51  1  0
 50 52  1  0
 52 53  2  0
 52 54  1  0
 54 55  1  0
 55 56  1  0
 56 57  1  0
 57 58  2  0
 58 59  1  0
 59 60  2  0
 60 61  1  0
 59 62  1  0
 62 63  1  0
 63 64  2  0
 63 65  1  0
 65 66  1  0
 66 67  1  0
 67 68  1  0
 68 69  1  0
 69 70  1  0
 70 71  2  0
 70 72  1  0
 65 73  1  0
 73 74  1  0
 74 75  2  0
 74 76  1  0
 76 77  1  0
 77 78  1  0
 77 79  1  0
 76 80  1  0
 80 81  1  0
 81 82  2  0
 81 83  1  0
 83 84  1  0
 84 85  1  0
 85 86  1  0
 86 87  1  0
 87 88  1  0
 88 89  1  0
 89 90  2  0
 89 91  1  0
 91 92  2  0
 92 93  1  0
 93 94  2  0
 14 10  1  0
 29 24  1  0
 61 56  2  0
 93 88  1  0
  1 95  1  0
  1 96  1  0
  1 97  1  0
  2 98  1  0
  2 99  1  0
  3100  1  1
  4101  1  0
  4102  1  0
  4103  1  0
  5104  1  1
  6105  1  1
  7106  1  0
  7107  1  0
 11108  1  0
 11109  1  0
 12110  1  0
 12111  1  0
 13112  1  0
 13113  1  0
 14114  1  1
 15115  1  6
 16116  1  1
 17117  1  0
 17118  1  0
 17119  1  0
 20120  1  0
 21121  1  6
 22122  1  0
 22123  1  0
 22124  1  0
 23125  1  1
 25126  1  0
 26127  1  0
 27128  1  0
 28129  1  0
 29130  1  0
 30131  1  0
 32132  1  0
 32133  1  0
 32134  1  0
 34135  1  0
 34136  1  0
 34137  1  0
 36138  1  0
 36139  1  0
 36140  1  0
 39141  1  1
 40142  1  0
 41143  1  0
 41144  1  0
 41145  1  0
 42146  1  0
 42147  1  0
 42148  1  0
 43149  1  0
 46150  1  6
 47151  1  0
 48152  1  0
 48153  1  0
 48154  1  0
 49155  1  0
 49156  1  0
 49157  1  0
 51158  1  0
 51159  1  0
 51160  1  0
 55161  1  0
 55162  1  0
 57163  1  0
 58164  1  0
 60165  1  0
 61166  1  0
 62167  1  0
 65168  1  6
 66169  1  0
 66170  1  0
 67171  1  0
 67172  1  0
 68173  1  0
 68174  1  0
 69175  1  0
 72176  1  0
 72177  1  0
 73178  1  0
 76179  1  6
 77180  1  0
 78181  1  0
 78182  1  0
 78183  1  0
 79184  1  0
 79185  1  0
 79186  1  0
 80187  1  0
 83188  1  0
 83189  1  0
 84190  1  0
 84191  1  0
 85192  1  0
 85193  1  0
 86194  1  0
 86195  1  0
 87196  1  0
 87197  1  0
 91198  1  0
 92199  1  0
M  END
$$$$

     RDKit          3D

199202  0  0  0  0  0  0  0  0999 V2000
   -5.3848   -2.8048    3.5075 C   0  0  0  0  0  0  0  0  0  0  0  0
   -5.2214   -1.4776    4.1798 C   0  0  0  0  0  0  0  0  0  0  0  0
   -5.7405   -0.3241    3.3146 C   0  0  2  0  0  0  0  0  0  0  0  0
   -7.1957   -0.6145    3.0674 C   0  0  0  0  0  0  0  0  0  0  0  0
   -4.9392   -0.1108    2.0944 C   0  0  1  0  0  0  0  0  0  0  0  0
   -5.3201    0.9721    1.1693 C   0  0  1  0  0  0  0  0  0  0  0  0
   -4.6313    0.9445   -0.1743 C   0  0  0  0  0  0  0  0  0  0  0  0
   -4.8908   -0.2350   -1.0032 C   0  0  0  0  0  0  0  0  0  0  0  0
   -5.6661   -1.1794   -0.7041 O   0  0  0  0  0  0  0  0  0  0  0  0
   -4.2136   -0.3462   -2.2857 N   0  0  0  0  0  0  0  0  0  0  0  0
   -3.2377    0.6158   -2.7456 C   0  0  0  0  0  0  0  0  0  0  0  0
   -2.8986    0.3327   -4.1504 C   0  0  0  0  0  0  0  0  0  0  0  0
   -3.8705   -0.7260   -4.5836 C   0  0  0  0  0  0  0  0  0  0  0  0
   -4.4017   -1.2939   -3.3115 C   0  0  1  0  0  0  0  0  0  0  0  0
   -3.8843   -2.7103   -3.1264 C   0  0  1  0  0  0  0  0  0  0  0  0
   -2.4289   -2.8770   -3.0911 C   0  0  1  0  0  0  0  0  0  0  0  0
   -1.8094   -2.1520   -1.9259 C   0  0  0  0  0  0  0  0  0  0  0  0
   -2.0298   -4.2971   -3.0661 C   0  0  0  0  0  0  0  0  0  0  0  0
   -2.7979   -5.2683   -3.2343 O   0  0  0  0  0  0  0  0  0  0  0  0
   -0.6449   -4.6811   -2.8326 N   0  0  0  0  0  0  0  0  0  0  0  0
   -0.2977   -6.0946   -2.8307 C   0  0  2  0  0  0  0  0  0  0  0  0
   -0.0840   -6.5818   -1.4017 C   0  0  0  0  0  0  0  0  0  0  0  0
    0.8335   -6.4541   -3.7207 C   0  0  1  0  0  0  0  0  0  0  0  0
    2.1438   -5.8684   -3.3448 C   0  0  0  0  0  0  0  0  0  0  0  0
    2.8466   -6.5058   -2.3195 C   0  0  0  0  0  0  0  0  0  0  0  0
    4.0861   -6.0415   -1.8926 C   0  0  0  0  0  0  0  0  0  0  0  0
    4.6277   -4.9298   -2.4957 C   0  0  0  0  0  0  0  0  0  0  0  0
    3.9135   -4.3167   -3.5074 C   0  0  0  0  0  0  0  0  0  0  0  0
    2.6935   -4.7603   -3.9392 C   0  0  0  0  0  0  0  0  0  0  0  0
    1.0303   -7.8569   -3.6434 O   0  0  0  0  0  0  0  0  0  0  0  0
   -4.4795   -3.2297   -1.9744 O   0  0  0  0  0  0  0  0  0  0  0  0
   -5.5022   -4.0922   -2.1096 C   0  0  0  0  0  0  0  0  0  0  0  0
   -6.6998    1.0250    0.9001 O   0  0  0  0  0  0  0  0  0  0  0  0
   -7.2255    2.2692    1.2467 C   0  0  0  0  0  0  0  0  0  0  0  0
   -3.4808   -0.0541    2.3448 N   0  0  0  0  0  0  0  0  0  0  0  0
   -2.6909   -1.1748    1.8822 C   0  0  0  0  0  0  0  0  0  0  0  0
   -3.0053    1.0560    3.0477 C   0  0  0  0  0  0  0  0  0  0  0  0
   -3.9759    1.8462    3.4762 O   0  0  0  0  0  0  0  0  0  0  0  0
   -1.7010    1.5295    3.4087 C   0  0  1  0  0  0  0  0  0  0  0  0
   -0.7734    2.0514    2.3361 C   0  0  0  0  0  0  0  0  0  0  0  0
    0.4967    2.5197    3.0843 C   0  0  0  0  0  0  0  0  0  0  0  0
   -0.2098    0.9419    1.4327 C   0  0  0  0  0  0  0  0  0  0  0  0
   -1.8088    2.5780    4.4024 N   0  0  0  0  0  0  0  0  0  0  0  0
   -1.6857    3.9650    4.2604 C   0  0  0  0  0  0  0  0  0  0  0  0
   -1.4839    4.4759    3.0944 O   0  0  0  0  0  0  0  0  0  0  0  0
   -1.7574    4.9523    5.3464 C   0  0  1  0  0  0  0  0  0  0  0  0
   -0.5935    4.8257    6.3482 C   0  0  0  0  0  0  0  0  0  0  0  0
   -0.5446    3.5200    7.0600 C   0  0  0  0  0  0  0  0  0  0  0  0
   -0.8943    5.8922    7.4060 C   0  0  0  0  0  0  0  0  0  0  0  0
   -1.8314    6.2968    4.8843 N   0  0  0  0  0  0  0  0  0  0  0  0
   -2.9611    7.0992    5.4259 C   0  0  0  0  0  0  0  0  0  0  0  0
   -0.9937    6.9760    3.9853 C   0  0  0  0  0  0  0  0  0  0  0  0
   -1.1694    8.2460    3.7930 O   0  0  0  0  0  0  0  0  0  0  0  0
    0.0369    6.4453    3.2341 O   0  0  0  0  0  0  0  0  0  0  0  0
    0.8092    7.2747    2.3616 C   0  0  0  0  0  0  0  0  0  0  0  0
    1.7350    6.4981    1.5401 C   0  0  0  0  0  0  0  0  0  0  0  0
    1.2505    6.1429    0.2654 C   0  0  0  0  0  0  0  0  0  0  0  0
    1.9868    5.3961   -0.6141 C   0  0  0  0  0  0  0  0  0  0  0  0
    3.2719    4.9461   -0.2794 C   0  0  0  0  0  0  0  0  0  0  0  0
    3.7448    5.2876    0.9511 C   0  0  0  0  0  0  0  0  0  0  0  0
    2.9846    6.0574    1.8564 C   0  0  0  0  0  0  0  0  0  0  0  0
    3.9160    4.1799   -1.2741 N   0  0  0  0  0  0  0  0  0  0  0  0
    4.8375    4.6095   -2.2104 C   0  0  0  0  0  0  0  0  0  0  0  0
    5.2107    5.8149   -2.2184 O   0  0  0  0  0  0  0  0  0  0  0  0
    5.4550    3.6626   -3.2853 C   0  0  1  0  0  0  0  0  0  0  0  0
    6.8709    3.4691   -2.9737 C   0  0  0  0  0  0  0  0  0  0  0  0
    7.6914    2.6350   -3.8800 C   0  0  0  0  0  0  0  0  0  0  0  0
    7.3535    1.2293   -4.1316 C   0  0  0  0  0  0  0  0  0  0  0  0
    6.1207    0.9573   -4.8256 N   0  0  0  0  0  0  0  0  0  0  0  0
    5.8342   -0.4334   -5.0664 C   0  0  0  0  0  0  0  0  0  0  0  0
    6.6537   -1.2665   -4.6502 O   0  0  0  0  0  0  0  0  0  0  0  0
    4.6840   -0.8768   -5.7476 N   0  0  0  0  0  0  0  0  0  0  0  0
    4.6003    2.4843   -3.1358 N   0  0  0  0  0  0  0  0  0  0  0  0
    3.2679    2.6639   -3.6387 C   0  0  0  0  0  0  0  0  0  0  0  0
    3.0351    3.8029   -4.1367 O   0  0  0  0  0  0  0  0  0  0  0  0
    2.2382    1.5865   -3.5658 C   0  0  1  0  0  0  0  0  0  0  0  0
    1.3654    1.6720   -4.7740 C   0  0  0  0  0  0  0  0  0  0  0  0
    2.1771    1.5121   -6.0310 C   0  0  0  0  0  0  0  0  0  0  0  0
    0.6893    3.0437   -4.7610 C   0  0  0  0  0  0  0  0  0  0  0  0
    2.7542    0.3042   -3.2234 N   0  0  0  0  0  0  0  0  0  0  0  0
    2.7571   -0.1987   -1.9005 C   0  0  0  0  0  0  0  0  0  0  0  0
    2.2999    0.5271   -1.0039 O   0  0  0  0  0  0  0  0  0  0  0  0
    3.2715   -1.5352   -1.5188 C   0  0  0  0  0  0  0  0  0  0  0  0
    3.3037   -1.6791   -0.0048 C   0  0  0  0  0  0  0  0  0  0  0  0
    3.8030   -3.0592    0.3424 C   0  0  0  0  0  0  0  0  0  0  0  0
    3.9002   -3.2493    1.8287 C   0  0  0  0  0  0  0  0  0  0  0  0
    2.5978   -3.0737    2.5511 C   0  0  0  0  0  0  0  0  0  0  0  0
    2.7879   -3.2711    3.9991 N   0  0  0  0  0  0  0  0  0  0  0  0
    2.6791   -4.4774    4.7384 C   0  0  0  0  0  0  0  0  0  0  0  0
    2.3853   -5.6136    4.2915 O   0  0  0  0  0  0  0  0  0  0  0  0
    2.9819   -4.1077    6.1200 C   0  0  0  0  0  0  0  0  0  0  0  0
    3.2468   -2.7968    6.1915 C   0  0  0  0  0  0  0  0  0  0  0  0
    3.1381   -2.2030    4.8635 C   0  0  0  0  0  0  0  0  0  0  0  0
    3.3181   -0.9980    4.5536 O   0  0  0  0  0  0  0  0  0  0  0  0
   -4.4438   -3.3422    3.3383 H   0  0  0  0  0  0  0  0  0  0  0  0
   -6.0433   -3.4803    4.1001 H   0  0  0  0  0  0  0  0  0  0  0  0
   -5.9489   -2.6235    2.5504 H   0  0  0  0  0  0  0  0  0  0  0  0
   -4.1895   -1.2806    4.5230 H   0  0  0  0  0  0  0  0  0  0  0  0
   -5.8339   -1.4965    5.1049 H   0  0  0  0  0  0  0  0  0  0  0  0
   -5.7262    0.5641    3.9765 H   0  0  0  0  0  0  0  0  0  0  0  0
   -7.3785   -1.1119    2.1039 H   0  0  0  0  0  0  0  0  0  0  0  0
   -7.8543    0.2848    3.2454 H   0  0  0  0  0  0  0  0  0  0  0  0
   -7.5757   -1.3186    3.8359 H   0  0  0  0  0  0  0  0  0  0  0  0
   -5.0607   -1.0733    1.4955 H   0  0  0  0  0  0  0  0  0  0  0  0
   -5.1231    1.9719    1.5887 H   0  0  0  0  0  0  0  0  0  0  0  0
   -3.5467    1.0863    0.0518 H   0  0  0  0  0  0  0  0  0  0  0  0
   -4.8998    1.8387   -0.7852 H   0  0  0  0  0  0  0  0  0  0  0  0
   -3.7391    1.6309   -2.6744 H   0  0  0  0  0  0  0  0  0  0  0  0
   -2.3685    0.6992   -2.0648 H   0  0  0  0  0  0  0  0  0  0  0  0
   -1.8677   -0.0740   -4.2052 H   0  0  0  0  0  0  0  0  0  0  0  0
   -3.0058    1.2425   -4.7945 H   0  0  0  0  0  0  0  0  0  0  0  0
   -3.3120   -1.4574   -5.2222 H   0  0  0  0  0  0  0  0  0  0  0  0
   -4.7053   -0.2726   -5.2054 H   0  0  0  0  0  0  0  0  0  0  0  0
   -5.5171   -1.4606   -3.5095 H   0  0  0  0  0  0  0  0  0  0  0  0
   -4.3284   -3.3068   -3.9782 H   0  0  0  0  0  0  0  0  0  0  0  0
   -1.9835   -2.4197   -4.0627 H   0  0  0  0  0  0  0  0  0  0  0  0
   -1.1790   -2.8493   -1.3003 H   0  0  0  0  0  0  0  0  0  0  0  0
   -1.1018   -1.3656   -2.2387 H   0  0  0  0  0  0  0  0  0  0  0  0
   -2.5574   -1.7645   -1.2190 H   0  0  0  0  0  0  0  0  0  0  0  0
    0.0766   -3.9310   -2.6681 H   0  0  0  0  0  0  0  0  0  0  0  0
   -1.1869   -6.6507   -3.1803 H   0  0  0  0  0  0  0  0  0  0  0  0
    0.7278   -6.0888   -0.8760 H   0  0  0  0  0  0  0  0  0  0  0  0
   -1.0462   -6.5104   -0.8498 H   0  0  0  0  0  0  0  0  0  0  0  0
    0.1372   -7.6651   -1.4763 H   0  0  0  0  0  0  0  0  0  0  0  0
    0.5416   -6.2055   -4.7589 H   0  0  0  0  0  0  0  0  0  0  0  0
    2.4790   -7.3792   -1.8197 H   0  0  0  0  0  0  0  0  0  0  0  0
    4.6080   -6.5636   -1.0888 H   0  0  0  0  0  0  0  0  0  0  0  0
    5.5918   -4.5821   -2.1535 H   0  0  0  0  0  0  0  0  0  0  0  0
    4.3995   -3.4293   -3.9447 H   0  0  0  0  0  0  0  0  0  0  0  0
    2.1469   -4.2745   -4.7272 H   0  0  0  0  0  0  0  0  0  0  0  0
    1.7193   -8.0651   -4.3374 H   0  0  0  0  0  0  0  0  0  0  0  0
   -5.8486   -4.3927   -1.0740 H   0  0  0  0  0  0  0  0  0  0  0  0
   -6.3737   -3.6939   -2.6892 H   0  0  0  0  0  0  0  0  0  0  0  0
   -5.2436   -5.0338   -2.5924 H   0  0  0  0  0  0  0  0  0  0  0  0
   -8.3026    2.2254    1.0156 H   0  0  0  0  0  0  0  0  0  0  0  0
   -6.7047    3.1045    0.7158 H   0  0  0  0  0  0  0  0  0  0  0  0
   -7.1090    2.3758    2.3451 H   0  0  0  0  0  0  0  0  0  0  0  0
   -3.3616   -2.0495    1.6149 H   0  0  0  0  0  0  0  0  0  0  0  0
   -2.1768   -0.9774    0.9296 H   0  0  0  0  0  0  0  0  0  0  0  0
   -1.9117   -1.4838    2.6086 H   0  0  0  0  0  0  0  0  0  0  0  0
   -1.0232    0.7462    3.9015 H   0  0  0  0  0  0  0  0  0  0  0  0
   -1.1258    2.8888    1.7440 H   0  0  0  0  0  0  0  0  0  0  0  0
    0.9603    3.3921    2.6316 H   0  0  0  0  0  0  0  0  0  0  0  0
    0.3242    2.7044    4.1477 H   0  0  0  0  0  0  0  0  0  0  0  0
    1.2905    1.7228    3.0665 H   0  0  0  0  0  0  0  0  0  0  0  0
   -0.1731    0.0190    1.9917 H   0  0  0  0  0  0  0  0  0  0  0  0
   -0.8062    0.8965    0.5177 H   0  0  0  0  0  0  0  0  0  0  0  0
    0.8192    1.2607    1.0820 H   0  0  0  0  0  0  0  0  0  0  0  0
   -2.0291    2.2220    5.3827 H   0  0  0  0  0  0  0  0  0  0  0  0
   -2.6369    4.7204    5.9915 H   0  0  0  0  0  0  0  0  0  0  0  0
    0.3395    5.1199    5.8674 H   0  0  0  0  0  0  0  0  0  0  0  0
    0.0677    3.5981    8.0149 H   0  0  0  0  0  0  0  0  0  0  0  0
   -0.0053    2.7775    6.4626 H   0  0  0  0  0  0  0  0  0  0  0  0
   -1.5444    3.1965    7.4315 H   0  0  0  0  0  0  0  0  0  0  0  0
   -0.4728    5.5846    8.3912 H   0  0  0  0  0  0  0  0  0  0  0  0
   -0.4599    6.8657    7.1488 H   0  0  0  0  0  0  0  0  0  0  0  0
   -2.0066    5.9218    7.5714 H   0  0  0  0  0  0  0  0  0  0  0  0
   -2.6220    7.8181    6.1711 H   0  0  0  0  0  0  0  0  0  0  0  0
   -3.3905    7.6184    4.5307 H   0  0  0  0  0  0  0  0  0  0  0  0
   -3.7614    6.4521    5.8029 H   0  0  0  0  0  0  0  0  0  0  0  0
    1.3983    7.9565    3.0177 H   0  0  0  0  0  0  0  0  0  0  0  0
    0.0725    7.8377    1.7438 H   0  0  0  0  0  0  0  0  0  0  0  0
    0.2598    6.4623   -0.0523 H   0  0  0  0  0  0  0  0  0  0  0  0
    1.5467    5.1549   -1.5822 H   0  0  0  0  0  0  0  0  0  0  0  0
    4.7380    4.9422    1.2127 H   0  0  0  0  0  0  0  0  0  0  0  0
    3.3744    6.3199    2.8297 H   0  0  0  0  0  0  0  0  0  0  0  0
    3.6502    3.1430   -1.2820 H   0  0  0  0  0  0  0  0  0  0  0  0
    5.2769    4.2491   -4.1835 H   0  0  0  0  0  0  0  0  0  0  0  0
    7.0289    3.0453   -1.9285 H   0  0  0  0  0  0  0  0  0  0  0  0
    7.3638    4.4997   -2.9642 H   0  0  0  0  0  0  0  0  0  0  0  0
    8.7938    2.6884   -3.6133 H   0  0  0  0  0  0  0  0  0  0  0  0
    7.7219    3.1617   -4.9157 H   0  0  0  0  0  0  0  0  0  0  0  0
    8.1616    0.7632   -4.7675 H   0  0  0  0  0  0  0  0  0  0  0  0
    7.3993    0.6496   -3.1717 H   0  0  0  0  0  0  0  0  0  0  0  0
    5.4973    1.7172   -5.1271 H   0  0  0  0  0  0  0  0  0  0  0  0
    4.1201   -1.7133   -5.5209 H   0  0  0  0  0  0  0  0  0  0  0  0
    4.3665   -0.3194   -6.5715 H   0  0  0  0  0  0  0  0  0  0  0  0
    4.9183    1.5929   -2.7108 H   0  0  0  0  0  0  0  0  0  0  0  0
    1.5426    1.8484   -2.6886 H   0  0  0  0  0  0  0  0  0  0  0  0
    0.5184    0.9455   -4.7383 H   0  0  0  0  0  0  0  0  0  0  0  0
    3.2578    1.6595   -5.8599 H   0  0  0  0  0  0  0  0  0  0  0  0
    1.8032    2.1846   -6.8459 H   0  0  0  0  0  0  0  0  0  0  0  0
    2.0332    0.4778   -6.3794 H   0  0  0  0  0  0  0  0  0  0  0  0
    1.1356    3.7428   -5.4821 H   0  0  0  0  0  0  0  0  0  0  0  0
   -0.4034    2.9747   -4.9915 H   0  0  0  0  0  0  0  0  0  0  0  0
    0.7747    3.4968   -3.7470 H   0  0  0  0  0  0  0  0  0  0  0  0
    3.1456   -0.2944   -3.9734 H   0  0  0  0  0  0  0  0  0  0  0  0
    4.2981   -1.6248   -1.8729 H   0  0  0  0  0  0  0  0  0  0  0  0
    2.5964   -2.3035   -1.9234 H   0  0  0  0  0  0  0  0  0  0  0  0
    2.3499   -1.4344    0.4588 H   0  0  0  0  0  0  0  0  0  0  0  0
    4.0520   -0.9607    0.4326 H   0  0  0  0  0  0  0  0  0  0  0  0
    3.0898   -3.8122   -0.1049 H   0  0  0  0  0  0  0  0  0  0  0  0
    4.7783   -3.2541   -0.1098 H   0  0  0  0  0  0  0  0  0  0  0  0
    4.2723   -4.2735    2.0640 H   0  0  0  0  0  0  0  0  0  0  0  0
    4.6067   -2.4941    2.2398 H   0  0  0  0  0  0  0  0  0  0  0  0
    1.8118   -3.8014    2.2165 H   0  0  0  0  0  0  0  0  0  0  0  0
    2.2347   -2.0444    2.3755 H   0  0  0  0  0  0  0  0  0  0  0  0
    3.0070   -4.7576    6.9926 H   0  0  0  0  0  0  0  0  0  0  0  0
    3.5038   -2.2796    7.1285 H   0  0  0  0  0  0  0  0  0  0  0  0
  1  2  1  0
  2  3  1  0
  3  4  1  0
  3  5  1  0
  5  6  1  0
  6  7  1  0
  7  8  1  0
  8  9  2  0
  8 10  1  0
 10 11  1  0
 11 12  1  0
 12 13  1  0
 13 14  1  0
 14 15  1  0
 15 16  1  0
 16 17  1  0
 16 18  1  0
 18 19  2  0
 18 20  1  0
 20 21  1  0
 21 22  1  0
 21 23  1  0
 23 24  1  0
 24 25  2  0
 25 26  1  0
 26 27  2  0
 27 28  1  0
 28 29  2  0
 23 30  1  0
 15 31  1  0
 31 32  1  0
  6 33  1  0
 33 34  1  0
  5 35  1  0
 35 36  1  0
 35 37  1  0
 37 38  2  0
 37 39  1  0
 39 40  1  0
 40 41  1  0
 40 42  1  0
 39 43  1  0
 43 44  1  0
 44 45  2  0
 44 46  1  0
 46 47  1  0
 47 48  1  0
 47 49  1  0
 46 50  1  0
 50 51  1  0
 50 52  1  0
 52 53  2  0
 52 54  1  0
 54 55  1  0
 55 56  1  0
 56 57  1  0
 57 58  2  0
 58 59  1  0
 59 60  2  0
 60 61  1  0
 59 62  1  0
 62 63  1  0
 63 64  2  0
 63 65  1  0
 65 66  1  0
 66 67  1  0
 67 68  1  0
 68 69  1  0
 69 70  1  0
 70 71  2  0
 70 72  1  0
 65 73  1  0
 73 74  1  0
 74 75  2  0
 74 76  1  0
 76 77  1  0
 77 78  1  0
 77 79  1  0
 76 80  1  0
 80 81  1  0
 81 82  2  0
 81 83  1  0
 83 84  1  0
 84 85  1  0
 85 86  1  0
 86 87  1  0
 87 88  1  0
 88 89  1  0
 89 90  2  0
 89 91  1  0
 91 92  2  0
 92 93  1  0
 93 94  2  0
 14 10  1  0
 29 24  1  0
 61 56  2  0
 93 88  1  0
  1 95  1  0
  1 96  1  0
  1 97  1  0
  2 98  1  0
  2 99  1  0
  3100  1  1
  4101  1  0
  4102  1  0
  4103  1  0
  5104  1  6
  6105  1  1
  7106  1  0
  7107  1  0
 11108  1  0
 11109  1  0
 12110  1  0
 12111  1  0
 13112  1  0
 13113  1  0
 14114  1  6
 15115  1  6
 16116  1  6
 17117  1  0
 17118  1  0
 17119  1  0
 20120  1  0
 21121  1  6
 22122  1  0
 22123  1  0
 22124  1  0
 23125  1  6
 25126  1  0
 26127  1  0
 27128  1  0
 28129  1  0
 29130  1  0
 30131  1  0
 32132  1  0
 32133  1  0
 32134  1  0
 34135  1  0
 34136  1  0
 34137  1  0
 36138  1  0
 36139  1  0
 36140  1  0
 39141  1  1
 40142  1  0
 41143  1  0
 41144  1  0
 41145  1  0
 42146  1  0
 42147  1  0
 42148  1  0
 43149  1  0
 46150  1  1
 47151  1  0
 48152  1  0
 48153  1  0
 48154  1  0
 49155  1  0
 49156  1  0
 49157  1  0
 51158  1  0
 51159  1  0
 51160  1  0
 55161  1  0
 55162  1  0
 57163  1  0
 58164  1  0
 60165  1  0
 61166  1  0
 62167  1  0
 65168  1  6
 66169  1  0
 66170  1  0
 67171  1  0
 67172  1  0
 68173  1  0
 68174  1  0
 69175  1  0
 72176  1  0
 72177  1  0
 73178  1  0
 76179  1  1
 77180  1  0
 78181  1  0
 78182  1  0
 78183  1  0
 79184  1  0
 79185  1  0
 79186  1  0
 80187  1  0
 83188  1  0
 83189  1  0
 84190  1  0
 84191  1  0
 85192  1  0
 85193  1  0
 86194  1  0
 86195  1  0
 87196  1  0
 87197  1  0
 91198  1  0
 92199  1  0
M  END
$$$$

     RDKit          3D

199202  0  0  0  0  0  0  0  0999 V2000
    2.9613   -4.5385    1.7923 C   0  0  0  0  0  0  0  0  0  0  0  0
    2.9848   -3.0369    1.7178 C   0  0  0  0  0  0  0  0  0  0  0  0
    1.8007   -2.4538    0.9692 C   0  0  2  0  0  0  0  0  0  0  0  0
    0.5996   -2.9242    1.7650 C   0  0  0  0  0  0  0  0  0  0  0  0
    1.7389   -2.8033   -0.4620 C   0  0  1  0  0  0  0  0  0  0  0  0
    0.5854   -2.2494   -1.2476 C   0  0  1  0  0  0  0  0  0  0  0  0
    0.3596   -0.8155   -1.3879 C   0  0  0  0  0  0  0  0  0  0  0  0
   -0.8807   -0.5364   -2.2510 C   0  0  0  0  0  0  0  0  0  0  0  0
   -0.6341   -0.3349   -3.4709 O   0  0  0  0  0  0  0  0  0  0  0  0
   -2.1745   -0.5258   -1.6791 N   0  0  0  0  0  0  0  0  0  0  0  0
   -2.4895   -0.6858   -0.2674 C   0  0  0  0  0  0  0  0  0  0  0  0
   -3.7922    0.0687   -0.1127 C   0  0  0  0  0  0  0  0  0  0  0  0
   -4.2163    0.5074   -1.5248 C   0  0  0  0  0  0  0  0  0  0  0  0
   -3.4423   -0.4269   -2.3644 C   0  0  1  0  0  0  0  0  0  0  0  0
   -3.4336   -0.2907   -3.8155 C   0  0  1  0  0  0  0  0  0  0  0  0
   -3.2396    1.0013   -4.4836 C   0  0  1  0  0  0  0  0  0  0  0  0
   -3.2325    0.6324   -6.0026 C   0  0  0  0  0  0  0  0  0  0  0  0
   -4.5083    1.8535   -4.4302 C   0  0  0  0  0  0  0  0  0  0  0  0
   -5.5459    1.2305   -4.0931 O   0  0  0  0  0  0  0  0  0  0  0  0
   -4.4897    3.2193   -4.7395 N   0  0  0  0  0  0  0  0  0  0  0  0
   -5.6350    4.1011   -4.7296 C   0  0  2  0  0  0  0  0  0  0  0  0
   -5.8307    4.5310   -6.1915 C   0  0  0  0  0  0  0  0  0  0  0  0
   -5.4029    5.3364   -3.9400 C   0  0  1  0  0  0  0  0  0  0  0  0
   -5.4379    5.2065   -2.4847 C   0  0  0  0  0  0  0  0  0  0  0  0
   -5.7447    4.0763   -1.7764 C   0  0  0  0  0  0  0  0  0  0  0  0
   -5.7750    4.0016   -0.3959 C   0  0  0  0  0  0  0  0  0  0  0  0
   -5.4802    5.1324    0.3217 C   0  0  0  0  0  0  0  0  0  0  0  0
   -5.1696    6.2749   -0.3543 C   0  0  0  0  0  0  0  0  0  0  0  0
   -5.1391    6.3472   -1.7371 C   0  0  0  0  0  0  0  0  0  0  0  0
   -4.2997    6.0117   -4.4527 O   0  0  0  0  0  0  0  0  0  0  0  0
   -2.7924   -1.3794   -4.3977 O   0  0  0  0  0  0  0  0  0  0  0  0
   -3.6665   -2.2670   -4.9875 C   0  0  0  0  0  0  0  0  0  0  0  0
    0.5386   -2.9804   -2.4632 O   0  0  0  0  0  0  0  0  0  0  0  0
   -0.5524   -3.8298   -2.5076 C   0  0  0  0  0  0  0  0  0  0  0  0
    3.0005   -2.6898   -1.1452 N   0  0  0  0  0  0  0  0  0  0  0  0
    3.5104   -3.8833   -1.8206 C   0  0  0  0  0  0  0  0  0  0  0  0
    3.7765   -1.4653   -1.1532 C   0  0  0  0  0  0  0  0  0  0  0  0
    3.4450   -0.4831   -0.4452 O   0  0  0  0  0  0  0  0  0  0  0  0
    4.9898   -1.3229   -1.9869 C   0  0  1  0  0  0  0  0  0  0  0  0
    4.6388   -0.5860   -3.3026 C   0  0  0  0  0  0  0  0  0  0  0  0
    3.6076   -1.3180   -4.1099 C   0  0  0  0  0  0  0  0  0  0  0  0
    4.2651    0.8456   -3.0465 C   0  0  0  0  0  0  0  0  0  0  0  0
    6.0300   -0.5005   -1.3315 N   0  0  0  0  0  0  0  0  0  0  0  0
    7.3561   -0.8871   -1.6374 C   0  0  0  0  0  0  0  0  0  0  0  0
    7.5180   -1.8622   -2.4489 O   0  0  0  0  0  0  0  0  0  0  0  0
    8.6014   -0.2829   -1.1116 C   0  0  1  0  0  0  0  0  0  0  0  0
    9.1454    0.6956   -2.1083 C   0  0  0  0  0  0  0  0  0  0  0  0
    9.4923    0.1422   -3.4417 C   0  0  0  0  0  0  0  0  0  0  0  0
   10.3905    1.4001   -1.5851 C   0  0  0  0  0  0  0  0  0  0  0  0
    8.4764    0.3057    0.1855 N   0  0  0  0  0  0  0  0  0  0  0  0
    9.2031   -0.3869    1.2810 C   0  0  0  0  0  0  0  0  0  0  0  0
    7.7593    1.4565    0.5534 C   0  0  0  0  0  0  0  0  0  0  0  0
    7.7784    1.7479    1.8028 O   0  0  0  0  0  0  0  0  0  0  0  0
    7.0586    2.3041   -0.2512 O   0  0  0  0  0  0  0  0  0  0  0  0
    6.4069    3.4411    0.1146 C   0  0  0  0  0  0  0  0  0  0  0  0
    5.2962    3.3306    1.0372 C   0  0  0  0  0  0  0  0  0  0  0  0
    4.0106    3.2372    0.4627 C   0  0  0  0  0  0  0  0  0  0  0  0
    2.8807    3.2072    1.2484 C   0  0  0  0  0  0  0  0  0  0  0  0
    2.9341    3.2647    2.6406 C   0  0  0  0  0  0  0  0  0  0  0  0
    4.1685    3.3496    3.2028 C   0  0  0  0  0  0  0  0  0  0  0  0
    5.3214    3.3826    2.4044 C   0  0  0  0  0  0  0  0  0  0  0  0
    1.6982    3.3535    3.3105 N   0  0  0  0  0  0  0  0  0  0  0  0
    0.7450    2.3621    3.5521 C   0  0  0  0  0  0  0  0  0  0  0  0
    0.8957    1.1543    3.1707 O   0  0  0  0  0  0  0  0  0  0  0  0
   -0.4973    2.7001    4.2627 C   0  0  1  0  0  0  0  0  0  0  0  0
   -0.9181    4.1082    3.8876 C   0  0  0  0  0  0  0  0  0  0  0  0
   -1.1252    4.3260    2.4282 C   0  0  0  0  0  0  0  0  0  0  0  0
   -1.5231    5.7854    2.1543 C   0  0  0  0  0  0  0  0  0  0  0  0
   -1.7125    6.0384    0.7493 N   0  0  0  0  0  0  0  0  0  0  0  0
   -2.0681    7.3938    0.4008 C   0  0  0  0  0  0  0  0  0  0  0  0
   -2.1893    8.2443    1.3156 O   0  0  0  0  0  0  0  0  0  0  0  0
   -2.2750    7.7405   -0.9583 N   0  0  0  0  0  0  0  0  0  0  0  0
   -1.5662    1.7628    4.1855 N   0  0  0  0  0  0  0  0  0  0  0  0
   -2.4187    1.6014    5.2982 C   0  0  0  0  0  0  0  0  0  0  0  0
   -2.1422    2.3228    6.3249 O   0  0  0  0  0  0  0  0  0  0  0  0
   -3.5789    0.7244    5.4163 C   0  0  1  0  0  0  0  0  0  0  0  0
   -4.8632    1.6253    5.3890 C   0  0  0  0  0  0  0  0  0  0  0  0
   -6.0678    0.7386    5.5099 C   0  0  0  0  0  0  0  0  0  0  0  0
   -4.8225    2.5243    6.5956 C   0  0  0  0  0  0  0  0  0  0  0  0
   -3.7828   -0.1898    4.2874 N   0  0  0  0  0  0  0  0  0  0  0  0
   -4.2475   -1.4838    4.6326 C   0  0  0  0  0  0  0  0  0  0  0  0
   -4.4720   -1.8499    5.8136 O   0  0  0  0  0  0  0  0  0  0  0  0
   -4.5162   -2.5429    3.5519 C   0  0  0  0  0  0  0  0  0  0  0  0
   -5.2309   -3.6835    4.1614 C   0  0  0  0  0  0  0  0  0  0  0  0
   -5.7198   -4.8129    3.3690 C   0  0  0  0  0  0  0  0  0  0  0  0
   -4.8451   -5.7041    2.5839 C   0  0  0  0  0  0  0  0  0  0  0  0
   -4.1325   -5.0782    1.4565 C   0  0  0  0  0  0  0  0  0  0  0  0
   -3.3110   -6.0777    0.7296 N   0  0  0  0  0  0  0  0  0  0  0  0
   -3.7058   -6.8601   -0.3920 C   0  0  0  0  0  0  0  0  0  0  0  0
   -4.8019   -6.8636   -0.9803 O   0  0  0  0  0  0  0  0  0  0  0  0
   -2.5132   -7.6743   -0.6988 C   0  0  0  0  0  0  0  0  0  0  0  0
   -1.5401   -7.4007    0.1429 C   0  0  0  0  0  0  0  0  0  0  0  0
   -1.9721   -6.3929    1.0838 C   0  0  0  0  0  0  0  0  0  0  0  0
   -1.3634   -5.8534    2.0405 O   0  0  0  0  0  0  0  0  0  0  0  0
    2.5790   -5.0033    0.8496 H   0  0  0  0  0  0  0  0  0  0  0  0
    2.4718   -4.9699    2.6575 H   0  0  0  0  0  0  0  0  0  0  0  0
    4.0295   -4.8567    1.8298 H   0  0  0  0  0  0  0  0  0  0  0  0
    3.9515   -2.5996    1.4437 H   0  0  0  0  0  0  0  0  0  0  0  0
    2.8243   -2.6831    2.7814 H   0  0  0  0  0  0  0  0  0  0  0  0
    1.8960   -1.3481    1.0614 H   0  0  0  0  0  0  0  0  0  0  0  0
    0.5856   -2.4670    2.7842 H   0  0  0  0  0  0  0  0  0  0  0  0
   -0.3010   -2.4908    1.2844 H   0  0  0  0  0  0  0  0  0  0  0  0
    0.5921   -4.0049    1.9090 H   0  0  0  0  0  0  0  0  0  0  0  0
    1.5048   -3.9386   -0.5164 H   0  0  0  0  0  0  0  0  0  0  0  0
   -0.3557   -2.6561   -0.7270 H   0  0  0  0  0  0  0  0  0  0  0  0
    0.0820   -0.3390   -0.4240 H   0  0  0  0  0  0  0  0  0  0  0  0
    1.1731   -0.2605   -1.8659 H   0  0  0  0  0  0  0  0  0  0  0  0
   -1.7509   -0.2755    0.4328 H   0  0  0  0  0  0  0  0  0  0  0  0
   -2.5899   -1.7840   -0.1188 H   0  0  0  0  0  0  0  0  0  0  0  0
   -3.6993    0.9125    0.5788 H   0  0  0  0  0  0  0  0  0  0  0  0
   -4.5314   -0.7044    0.2505 H   0  0  0  0  0  0  0  0  0  0  0  0
   -3.9682    1.5757   -1.6002 H   0  0  0  0  0  0  0  0  0  0  0  0
   -5.3259    0.3329   -1.5894 H   0  0  0  0  0  0  0  0  0  0  0  0
   -3.9140   -1.4463   -2.1744 H   0  0  0  0  0  0  0  0  0  0  0  0
   -4.5430   -0.5247   -4.0760 H   0  0  0  0  0  0  0  0  0  0  0  0
   -2.3682    1.5909   -4.3319 H   0  0  0  0  0  0  0  0  0  0  0  0
   -4.2686    0.4783   -6.3611 H   0  0  0  0  0  0  0  0  0  0  0  0
   -2.8065    1.5185   -6.5119 H   0  0  0  0  0  0  0  0  0  0  0  0
   -2.5523   -0.2170   -6.1523 H   0  0  0  0  0  0  0  0  0  0  0  0
   -3.5642    3.6434   -5.0055 H   0  0  0  0  0  0  0  0  0  0  0  0
   -6.5657    3.5595   -4.4484 H   0  0  0  0  0  0  0  0  0  0  0  0
   -6.5691    5.3559   -6.1976 H   0  0  0  0  0  0  0  0  0  0  0  0
   -4.8699    4.9762   -6.5205 H   0  0  0  0  0  0  0  0  0  0  0  0
   -6.0844    3.6786   -6.8434 H   0  0  0  0  0  0  0  0  0  0  0  0
   -6.2751    6.0372   -4.1909 H   0  0  0  0  0  0  0  0  0  0  0  0
   -5.9802    3.1899   -2.3140 H   0  0  0  0  0  0  0  0  0  0  0  0
   -6.0180    3.1011    0.1429 H   0  0  0  0  0  0  0  0  0  0  0  0
   -5.4952    5.1032    1.3992 H   0  0  0  0  0  0  0  0  0  0  0  0
   -4.9397    7.1560    0.2262 H   0  0  0  0  0  0  0  0  0  0  0  0
   -4.8852    7.2827   -2.2191 H   0  0  0  0  0  0  0  0  0  0  0  0
   -4.5176    6.5525   -5.2626 H   0  0  0  0  0  0  0  0  0  0  0  0
   -4.3704   -2.6510   -4.1903 H   0  0  0  0  0  0  0  0  0  0  0  0
   -3.1664   -3.1672   -5.3748 H   0  0  0  0  0  0  0  0  0  0  0  0
   -4.3111   -1.8253   -5.7593 H   0  0  0  0  0  0  0  0  0  0  0  0
   -0.5337   -4.3583   -3.4718 H   0  0  0  0  0  0  0  0  0  0  0  0
   -0.4195   -4.5967   -1.7042 H   0  0  0  0  0  0  0  0  0  0  0  0
   -1.4738   -3.2422   -2.3575 H   0  0  0  0  0  0  0  0  0  0  0  0
    2.6904   -4.5127   -2.2133 H   0  0  0  0  0  0  0  0  0  0  0  0
    4.1510   -3.6892   -2.6878 H   0  0  0  0  0  0  0  0  0  0  0  0
    4.1713   -4.4570   -1.0983 H   0  0  0  0  0  0  0  0  0  0  0  0
    5.4567   -2.2349   -2.3400 H   0  0  0  0  0  0  0  0  0  0  0  0
    5.5878   -0.5831   -3.8799 H   0  0  0  0  0  0  0  0  0  0  0  0
    3.1475   -0.7009   -4.8934 H   0  0  0  0  0  0  0  0  0  0  0  0
    4.0800   -2.1907   -4.6415 H   0  0  0  0  0  0  0  0  0  0  0  0
    2.7378   -1.6514   -3.4717 H   0  0  0  0  0  0  0  0  0  0  0  0
    3.1390    0.8560   -2.9526 H   0  0  0  0  0  0  0  0  0  0  0  0
    4.6375    1.2471   -2.0838 H   0  0  0  0  0  0  0  0  0  0  0  0
    4.4962    1.5206   -3.8854 H   0  0  0  0  0  0  0  0  0  0  0  0
    5.8240    0.2844   -0.7012 H   0  0  0  0  0  0  0  0  0  0  0  0
    9.3726   -1.1360   -1.0278 H   0  0  0  0  0  0  0  0  0  0  0  0
    8.3284    1.4666   -2.2957 H   0  0  0  0  0  0  0  0  0  0  0  0
    9.3729    0.8840   -4.2715 H   0  0  0  0  0  0  0  0  0  0  0  0
    8.9270   -0.7398   -3.7655 H   0  0  0  0  0  0  0  0  0  0  0  0
   10.5741   -0.1568   -3.4295 H   0  0  0  0  0  0  0  0  0  0  0  0
   10.7717    0.8339   -0.7122 H   0  0  0  0  0  0  0  0  0  0  0  0
   10.1392    2.4543   -1.3741 H   0  0  0  0  0  0  0  0  0  0  0  0
   11.2181    1.4023   -2.3203 H   0  0  0  0  0  0  0  0  0  0  0  0
   10.0231    0.2862    1.5885 H   0  0  0  0  0  0  0  0  0  0  0  0
    8.4501   -0.5854    2.0680 H   0  0  0  0  0  0  0  0  0  0  0  0
    9.5703   -1.3693    0.9279 H   0  0  0  0  0  0  0  0  0  0  0  0
    6.0610    3.9775   -0.8461 H   0  0  0  0  0  0  0  0  0  0  0  0
    7.1532    4.2240    0.5081 H   0  0  0  0  0  0  0  0  0  0  0  0
    3.8923    3.1888   -0.6126 H   0  0  0  0  0  0  0  0  0  0  0  0
    1.9094    3.1372    0.7504 H   0  0  0  0  0  0  0  0  0  0  0  0
    4.2314    3.3911    4.2811 H   0  0  0  0  0  0  0  0  0  0  0  0
    6.2389    3.4795    2.9453 H   0  0  0  0  0  0  0  0  0  0  0  0
    1.4831    4.3256    3.6839 H   0  0  0  0  0  0  0  0  0  0  0  0
   -0.2520    2.8241    5.3816 H   0  0  0  0  0  0  0  0  0  0  0  0
   -0.2148    4.8323    4.2952 H   0  0  0  0  0  0  0  0  0  0  0  0
   -1.8909    4.3042    4.4530 H   0  0  0  0  0  0  0  0  0  0  0  0
   -1.9941    3.7212    2.1159 H   0  0  0  0  0  0  0  0  0  0  0  0
   -0.2528    4.0576    1.8152 H   0  0  0  0  0  0  0  0  0  0  0  0
   -2.4397    6.0427    2.7391 H   0  0  0  0  0  0  0  0  0  0  0  0
   -0.6992    6.4193    2.5288 H   0  0  0  0  0  0  0  0  0  0  0  0
   -1.6061    5.3113   -0.0014 H   0  0  0  0  0  0  0  0  0  0  0  0
   -2.2409    7.0260   -1.6966 H   0  0  0  0  0  0  0  0  0  0  0  0
   -2.4661    8.7408   -1.1926 H   0  0  0  0  0  0  0  0  0  0  0  0
   -1.7776    1.1635    3.3467 H   0  0  0  0  0  0  0  0  0  0  0  0
   -3.6595    0.1986    6.3615 H   0  0  0  0  0  0  0  0  0  0  0  0
   -4.8328    2.1842    4.4371 H   0  0  0  0  0  0  0  0  0  0  0  0
   -6.0727    0.2514    6.4853 H   0  0  0  0  0  0  0  0  0  0  0  0
   -6.1320    0.0348    4.6340 H   0  0  0  0  0  0  0  0  0  0  0  0
   -6.9571    1.4224    5.4527 H   0  0  0  0  0  0  0  0  0  0  0  0
   -5.8240    2.8893    6.8868 H   0  0  0  0  0  0  0  0  0  0  0  0
   -4.3954    2.0022    7.4790 H   0  0  0  0  0  0  0  0  0  0  0  0
   -4.2078    3.4174    6.3143 H   0  0  0  0  0  0  0  0  0  0  0  0
   -3.6130    0.0516    3.3112 H   0  0  0  0  0  0  0  0  0  0  0  0
   -3.4425   -2.8607    3.3448 H   0  0  0  0  0  0  0  0  0  0  0  0
   -4.9781   -2.0876    2.6839 H   0  0  0  0  0  0  0  0  0  0  0  0
   -4.5871   -4.1405    5.0029 H   0  0  0  0  0  0  0  0  0  0  0  0
   -6.1073   -3.2759    4.7895 H   0  0  0  0  0  0  0  0  0  0  0  0
   -6.3441   -5.4916    4.0731 H   0  0  0  0  0  0  0  0  0  0  0  0
   -6.5775   -4.4231    2.7047 H   0  0  0  0  0  0  0  0  0  0  0  0
   -4.0749   -6.1534    3.2981 H   0  0  0  0  0  0  0  0  0  0  0  0
   -5.4274   -6.6247    2.2577 H   0  0  0  0  0  0  0  0  0  0  0  0
   -4.8576   -4.6341    0.7192 H   0  0  0  0  0  0  0  0  0  0  0  0
   -3.4703   -4.2823    1.7467 H   0  0  0  0  0  0  0  0  0  0  0  0
   -2.3985   -8.4062   -1.4952 H   0  0  0  0  0  0  0  0  0  0  0  0
   -0.5382   -7.8365    0.1714 H   0  0  0  0  0  0  0  0  0  0  0  0
  1  2  1  0
  2  3  1  0
  3  4  1  0
  3  5  1  0
  5  6  1  0
  6  7  1  0
  7  8  1  0
  8  9  2  0
  8 10  1  0
 10 11  1  0
 11 12  1  0
 12 13  1  0
 13 14  1  0
 14 15  1  0
 15 16  1  0
 16 17  1  0
 16 18  1  0
 18 19  2  0
 18 20  1  0
 20 21  1  0
 21 22  1  0
 21 23  1  0
 23 24  1  0
 24 25  2  0
 25 26  1  0
 26 27  2  0
 27 28  1  0
 28 29  2  0
 23 30  1  0
 15 31  1  0
 31 32  1  0
  6 33  1  0
 33 34  1  0
  5 35  1  0
 35 36  1  0
 35 37  1  0
 37 38  2  0
 37 39  1  0
 39 40  1  0
 40 41  1  0
 40 42  1  0
 39 43  1  0
 43 44  1  0
 44 45  2  0
 44 46  1  0
 46 47  1  0
 47 48  1  0
 47 49  1  0
 46 50  1  0
 50 51  1  0
 50 52  1  0
 52 53  2  0
 52 54  1  0
 54 55  1  0
 55 56  1  0
 56 57  1  0
 57 58  2  0
 58 59  1  0
 59 60  2  0
 60 61  1  0
 59 62  1  0
 62 63  1  0
 63 64  2  0
 63 65  1  0
 65 66  1  0
 66 67  1  0
 67 68  1  0
 68 69  1  0
 69 70  1  0
 70 71  2  0
 70 72  1  0
 65 73  1  0
 73 74  1  0
 74 75  2  0
 74 76  1  0
 76 77  1  0
 77 78  1  0
 77 79  1  0
 76 80  1  0
 80 81  1  0
 81 82  2  0
 81 83  1  0
 83 84  1  0
 84 85  1  0
 85 86  1  0
 86 87  1  0
 87 88  1  0
 88 89  1  0
 89 90  2  0
 89 91  1  0
 91 92  2  0
 92 93  1  0
 93 94  2  0
 14 10  1  0
 29 24  1  0
 61 56  2  0
 93 88  1  0
  1 95  1  0
  1 96  1  0
  1 97  1  0
  2 98  1  0
  2 99  1  0
  3100  1  6
  4101  1  0
  4102  1  0
  4103  1  0
  5104  1  1
  6105  1  1
  7106  1  0
  7107  1  0
 11108  1  0
 11109  1  0
 12110  1  0
 12111  1  0
 13112  1  0
 13113  1  0
 14114  1  6
 15115  1  6
 16116  1  1
 17117  1  0
 17118  1  0
 17119  1  0
 20120  1  0
 21121  1  1
 22122  1  0
 22123  1  0
 22124  1  0
 23125  1  6
 25126  1  0
 26127  1  0
 27128  1  0
 28129  1  0
 29130  1  0
 30131  1  0
 32132  1  0
 32133  1  0
 32134  1  0
 34135  1  0
 34136  1  0
 34137  1  0
 36138  1  0
 36139  1  0
 36140  1  0
 39141  1  6
 40142  1  0
 41143  1  0
 41144  1  0
 41145  1  0
 42146  1  0
 42147  1  0
 42148  1  0
 43149  1  0
 46150  1  1
 47151  1  0
 48152  1  0
 48153  1  0
 48154  1  0
 49155  1  0
 49156  1  0
 49157  1  0
 51158  1  0
 51159  1  0
 51160  1  0
 55161  1  0
 55162  1  0
 57163  1  0
 58164  1  0
 60165  1  0
 61166  1  0
 62167  1  0
 65168  1  1
 66169  1  0
 66170  1  0
 67171  1  0
 67172  1  0
 68173  1  0
 68174  1  0
 69175  1  0
 72176  1  0
 72177  1  0
 73178  1  0
 76179  1  1
 77180  1  0
 78181  1  0
 78182  1  0
 78183  1  0
 79184  1  0
 79185  1  0
 79186  1  0
 80187  1  0
 83188  1  0
 83189  1  0
 84190  1  0
 84191  1  0
 85192  1  0
 85193  1  0
 86194  1  0
 86195  1  0
 87196  1  0
 87197  1  0
 91198  1  0
 92199  1  0
M  END
$$$$

     RDKit          3D

199202  0  0  0  0  0  0  0  0999 V2000
   -2.1469   -1.9085   -6.0056 C   0  0  0  0  0  0  0  0  0  0  0  0
   -0.8889   -2.1177   -5.1158 C   0  0  0  0  0  0  0  0  0  0  0  0
   -1.2789   -2.9568   -3.9352 C   0  0  2  0  0  0  0  0  0  0  0  0
   -2.3306   -2.2930   -3.1290 C   0  0  0  0  0  0  0  0  0  0  0  0
   -0.0475   -3.4346   -3.0902 C   0  0  1  0  0  0  0  0  0  0  0  0
    0.6801   -2.3038   -2.5231 C   0  0  1  0  0  0  0  0  0  0  0  0
    1.7968   -1.9030   -3.4381 C   0  0  0  0  0  0  0  0  0  0  0  0
    2.6282   -0.7619   -2.9835 C   0  0  0  0  0  0  0  0  0  0  0  0
    2.4799   -0.1342   -1.9163 O   0  0  0  0  0  0  0  0  0  0  0  0
    3.7259   -0.2941   -3.8033 N   0  0  0  0  0  0  0  0  0  0  0  0
    3.9253   -0.9249   -5.1377 C   0  0  0  0  0  0  0  0  0  0  0  0
    5.2649   -0.4253   -5.5970 C   0  0  0  0  0  0  0  0  0  0  0  0
    5.3049    0.9629   -4.9723 C   0  0  0  0  0  0  0  0  0  0  0  0
    4.7407    0.6389   -3.5792 C   0  0  1  0  0  0  0  0  0  0  0  0
    4.7039    1.8177   -2.7663 C   0  0  1  0  0  0  0  0  0  0  0  0
    4.1568    3.1242   -3.1024 C   0  0  1  0  0  0  0  0  0  0  0  0
    4.7404    3.8642   -4.2833 C   0  0  0  0  0  0  0  0  0  0  0  0
    2.6921    3.3372   -3.0442 C   0  0  0  0  0  0  0  0  0  0  0  0
    2.1405    4.2286   -2.3229 O   0  0  0  0  0  0  0  0  0  0  0  0
    1.7660    2.5404   -3.8169 N   0  0  0  0  0  0  0  0  0  0  0  0
    0.3610    2.8046   -3.7473 C   0  0  2  0  0  0  0  0  0  0  0  0
   -0.4510    1.7424   -3.0597 C   0  0  0  0  0  0  0  0  0  0  0  0
   -0.2534    2.9992   -5.1212 C   0  0  1  0  0  0  0  0  0  0  0  0
   -1.6928    3.3107   -4.9690 C   0  0  0  0  0  0  0  0  0  0  0  0
   -2.0775    4.5776   -4.5480 C   0  0  0  0  0  0  0  0  0  0  0  0
   -3.4316    4.9038   -4.3943 C   0  0  0  0  0  0  0  0  0  0  0  0
   -4.3592    3.9202   -4.6772 C   0  0  0  0  0  0  0  0  0  0  0  0
   -3.9633    2.6677   -5.0951 C   0  0  0  0  0  0  0  0  0  0  0  0
   -2.6312    2.3631   -5.2415 C   0  0  0  0  0  0  0  0  0  0  0  0
    0.3192    4.0790   -5.8099 O   0  0  0  0  0  0  0  0  0  0  0  0
    4.3940    1.5031   -1.4321 O   0  0  0  0  0  0  0  0  0  0  0  0
    5.4741    1.6371   -0.5954 C   0  0  0  0  0  0  0  0  0  0  0  0
    0.0289   -1.3512   -1.8569 O   0  0  0  0  0  0  0  0  0  0  0  0
   -0.0343   -1.0481   -0.5847 C   0  0  0  0  0  0  0  0  0  0  0  0
   -0.6348   -4.4865   -2.3044 N   0  0  0  0  0  0  0  0  0  0  0  0
   -1.1514   -4.4272   -0.9727 C   0  0  0  0  0  0  0  0  0  0  0  0
   -0.5467   -5.7906   -2.9022 C   0  0  0  0  0  0  0  0  0  0  0  0
    0.2380   -5.8448   -3.9170 O   0  0  0  0  0  0  0  0  0  0  0  0
   -1.2153   -7.0261   -2.5288 C   0  0  1  0  0  0  0  0  0  0  0  0
   -0.3454   -8.1956   -2.2230 C   0  0  0  0  0  0  0  0  0  0  0  0
    0.6060   -7.9606   -1.0795 C   0  0  0  0  0  0  0  0  0  0  0  0
    0.3056   -8.7026   -3.4767 C   0  0  0  0  0  0  0  0  0  0  0  0
   -2.3275   -6.8811   -1.5988 N   0  0  0  0  0  0  0  0  0  0  0  0
   -3.5056   -6.2977   -2.1234 C   0  0  0  0  0  0  0  0  0  0  0  0
   -3.4621   -5.9870   -3.3584 O   0  0  0  0  0  0  0  0  0  0  0  0
   -4.7476   -6.0066   -1.4146 C   0  0  1  0  0  0  0  0  0  0  0  0
   -5.9913   -6.1532   -2.2706 C   0  0  0  0  0  0  0  0  0  0  0  0
   -7.2499   -5.8331   -1.4726 C   0  0  0  0  0  0  0  0  0  0  0  0
   -5.9583   -5.1909   -3.4443 C   0  0  0  0  0  0  0  0  0  0  0  0
   -4.9004   -6.5348   -0.0976 N   0  0  0  0  0  0  0  0  0  0  0  0
   -5.0931   -7.9537    0.1725 C   0  0  0  0  0  0  0  0  0  0  0  0
   -4.8568   -5.6754    1.0246 C   0  0  0  0  0  0  0  0  0  0  0  0
   -5.1213   -6.0773    2.2077 O   0  0  0  0  0  0  0  0  0  0  0  0
   -4.5146   -4.3166    0.9484 O   0  0  0  0  0  0  0  0  0  0  0  0
   -4.5137   -3.5211    2.1252 C   0  0  0  0  0  0  0  0  0  0  0  0
   -3.9902   -2.1731    1.9753 C   0  0  0  0  0  0  0  0  0  0  0  0
   -4.6231   -1.0363    1.5735 C   0  0  0  0  0  0  0  0  0  0  0  0
   -3.9714    0.2138    1.5265 C   0  0  0  0  0  0  0  0  0  0  0  0
   -2.6580    0.3702    1.8826 C   0  0  0  0  0  0  0  0  0  0  0  0
   -2.0113   -0.8036    2.2939 C   0  0  0  0  0  0  0  0  0  0  0  0
   -2.6329   -2.0172    2.3418 C   0  0  0  0  0  0  0  0  0  0  0  0
   -1.9033    1.5349    1.9053 N   0  0  0  0  0  0  0  0  0  0  0  0
   -2.2387    2.8526    1.5027 C   0  0  0  0  0  0  0  0  0  0  0  0
   -3.3677    3.0373    1.0285 O   0  0  0  0  0  0  0  0  0  0  0  0
   -1.1985    3.8932    1.6938 C   0  0  1  0  0  0  0  0  0  0  0  0
   -1.7084    5.0594    2.5548 C   0  0  0  0  0  0  0  0  0  0  0  0
   -2.8569    5.7893    1.9383 C   0  0  0  0  0  0  0  0  0  0  0  0
   -2.5077    6.4073    0.6037 C   0  0  0  0  0  0  0  0  0  0  0  0
   -3.6698    7.1131    0.1035 N   0  0  0  0  0  0  0  0  0  0  0  0
   -3.4937    7.7751   -1.1590 C   0  0  0  0  0  0  0  0  0  0  0  0
   -2.3471    7.6716   -1.7039 O   0  0  0  0  0  0  0  0  0  0  0  0
   -4.5389    8.5146   -1.7800 N   0  0  0  0  0  0  0  0  0  0  0  0
    0.0112    3.3500    2.2576 N   0  0  0  0  0  0  0  0  0  0  0  0
    0.5806    3.6056    3.4931 C   0  0  0  0  0  0  0  0  0  0  0  0
    0.1053    4.4022    4.3811 O   0  0  0  0  0  0  0  0  0  0  0  0
    1.8459    2.9118    3.8729 C   0  0  1  0  0  0  0  0  0  0  0  0
    3.0529    3.5076    3.2306 C   0  0  0  0  0  0  0  0  0  0  0  0
    4.2538    2.7157    3.7123 C   0  0  0  0  0  0  0  0  0  0  0  0
    3.2670    4.9511    3.6549 C   0  0  0  0  0  0  0  0  0  0  0  0
    1.9457    2.9607    5.3398 N   0  0  0  0  0  0  0  0  0  0  0  0
    1.5124    1.7341    5.9670 C   0  0  0  0  0  0  0  0  0  0  0  0
    1.1050    0.7557    5.2880 O   0  0  0  0  0  0  0  0  0  0  0  0
    1.5238    1.5608    7.4425 C   0  0  0  0  0  0  0  0  0  0  0  0
    0.9100    0.1597    7.6607 C   0  0  0  0  0  0  0  0  0  0  0  0
    0.8635   -0.0993    9.1227 C   0  0  0  0  0  0  0  0  0  0  0  0
    2.1401   -0.0502    9.8209 C   0  0  0  0  0  0  0  0  0  0  0  0
    3.2061   -1.0090    9.5556 C   0  0  0  0  0  0  0  0  0  0  0  0
    3.8268   -1.1452    8.2925 N   0  0  0  0  0  0  0  0  0  0  0  0
    3.6062   -2.0125    7.1799 C   0  0  0  0  0  0  0  0  0  0  0  0
    2.7161   -2.8920    7.1333 O   0  0  0  0  0  0  0  0  0  0  0  0
    4.5852   -1.6884    6.1400 C   0  0  0  0  0  0  0  0  0  0  0  0
    5.3605   -0.7181    6.5332 C   0  0  0  0  0  0  0  0  0  0  0  0
    4.9384   -0.3282    7.8784 C   0  0  0  0  0  0  0  0  0  0  0  0
    5.5140    0.5957    8.5135 O   0  0  0  0  0  0  0  0  0  0  0  0
   -2.0077   -0.9995   -6.6256 H   0  0  0  0  0  0  0  0  0  0  0  0
   -2.2717   -2.7606   -6.6976 H   0  0  0  0  0  0  0  0  0  0  0  0
   -3.0522   -1.7722   -5.4217 H   0  0  0  0  0  0  0  0  0  0  0  0
   -0.5714   -1.1044   -4.9028 H   0  0  0  0  0  0  0  0  0  0  0  0
   -0.1981   -2.7218   -5.7547 H   0  0  0  0  0  0  0  0  0  0  0  0
   -1.6811   -3.9014   -4.3545 H   0  0  0  0  0  0  0  0  0  0  0  0
   -3.3247   -2.8150   -3.2731 H   0  0  0  0  0  0  0  0  0  0  0  0
   -2.4956   -1.2729   -3.5598 H   0  0  0  0  0  0  0  0  0  0  0  0
   -2.1314   -2.2705   -2.0661 H   0  0  0  0  0  0  0  0  0  0  0  0
    0.5288   -3.9259   -3.9312 H   0  0  0  0  0  0  0  0  0  0  0  0
    1.2791   -2.8345   -1.6382 H   0  0  0  0  0  0  0  0  0  0  0  0
    1.5499   -1.8334   -4.5100 H   0  0  0  0  0  0  0  0  0  0  0  0
    2.5785   -2.7624   -3.4557 H   0  0  0  0  0  0  0  0  0  0  0  0
    3.8088   -2.0019   -5.1140 H   0  0  0  0  0  0  0  0  0  0  0  0
    3.1671   -0.4495   -5.7901 H   0  0  0  0  0  0  0  0  0  0  0  0
    5.3651   -0.3801   -6.6973 H   0  0  0  0  0  0  0  0  0  0  0  0
    6.0598   -1.0688   -5.1817 H   0  0  0  0  0  0  0  0  0  0  0  0
    4.7250    1.6831   -5.5322 H   0  0  0  0  0  0  0  0  0  0  0  0
    6.3434    1.3193   -4.8584 H   0  0  0  0  0  0  0  0  0  0  0  0
    5.6171   -0.0133   -3.1621 H   0  0  0  0  0  0  0  0  0  0  0  0
    5.8579    2.0608   -2.6162 H   0  0  0  0  0  0  0  0  0  0  0  0
    4.4982    3.7996   -2.2212 H   0  0  0  0  0  0  0  0  0  0  0  0
    5.7718    3.5939   -4.5281 H   0  0  0  0  0  0  0  0  0  0  0  0
    4.7871    4.9590   -3.9763 H   0  0  0  0  0  0  0  0  0  0  0  0
    4.1161    3.8898   -5.1882 H   0  0  0  0  0  0  0  0  0  0  0  0
    2.1873    1.7898   -4.4022 H   0  0  0  0  0  0  0  0  0  0  0  0
    0.2038    3.7353   -3.1787 H   0  0  0  0  0  0  0  0  0  0  0  0
    0.0580    1.3629   -2.1645 H   0  0  0  0  0  0  0  0  0  0  0  0
   -0.7561    0.9443   -3.7533 H   0  0  0  0  0  0  0  0  0  0  0  0
   -1.3966    2.2019   -2.6964 H   0  0  0  0  0  0  0  0  0  0  0  0
   -0.1212    2.0616   -5.7203 H   0  0  0  0  0  0  0  0  0  0  0  0
   -1.3147    5.3382   -4.3355 H   0  0  0  0  0  0  0  0  0  0  0  0
   -3.6852    5.8989   -4.0659 H   0  0  0  0  0  0  0  0  0  0  0  0
   -5.3998    4.1660   -4.5549 H   0  0  0  0  0  0  0  0  0  0  0  0
   -4.6941    1.9016   -5.3189 H   0  0  0  0  0  0  0  0  0  0  0  0
   -2.3097    1.3966   -5.5658 H   0  0  0  0  0  0  0  0  0  0  0  0
    0.6760    4.7617   -5.1518 H   0  0  0  0  0  0  0  0  0  0  0  0
    6.2994    0.9723   -0.9140 H   0  0  0  0  0  0  0  0  0  0  0  0
    5.2404    1.3735    0.4533 H   0  0  0  0  0  0  0  0  0  0  0  0
    5.8617    2.6847   -0.6663 H   0  0  0  0  0  0  0  0  0  0  0  0
   -0.4815   -1.7843    0.1356 H   0  0  0  0  0  0  0  0  0  0  0  0
    0.9222   -0.7706   -0.0286 H   0  0  0  0  0  0  0  0  0  0  0  0
   -0.6467   -0.0916   -0.4227 H   0  0  0  0  0  0  0  0  0  0  0  0
   -1.0300   -5.4354   -0.4476 H   0  0  0  0  0  0  0  0  0  0  0  0
   -2.1915   -4.1699   -0.8229 H   0  0  0  0  0  0  0  0  0  0  0  0
   -0.4606   -3.8301   -0.2952 H   0  0  0  0  0  0  0  0  0  0  0  0
   -1.7572   -7.3162   -3.5112 H   0  0  0  0  0  0  0  0  0  0  0  0
   -1.0466   -9.0190   -1.8963 H   0  0  0  0  0  0  0  0  0  0  0  0
    0.1199   -7.7775   -0.1265 H   0  0  0  0  0  0  0  0  0  0  0  0
    1.2993   -7.1214   -1.3119 H   0  0  0  0  0  0  0  0  0  0  0  0
    1.2620   -8.8635   -0.9384 H   0  0  0  0  0  0  0  0  0  0  0  0
    0.0072   -8.1776   -4.3828 H   0  0  0  0  0  0  0  0  0  0  0  0
    1.4260   -8.6216   -3.3958 H   0  0  0  0  0  0  0  0  0  0  0  0
    0.1041   -9.7885   -3.6787 H   0  0  0  0  0  0  0  0  0  0  0  0
   -2.3378   -7.1881   -0.6167 H   0  0  0  0  0  0  0  0  0  0  0  0
   -4.6743   -4.8626   -1.2377 H   0  0  0  0  0  0  0  0  0  0  0  0
   -6.1274   -7.1645   -2.6945 H   0  0  0  0  0  0  0  0  0  0  0  0
   -7.0563   -5.8522   -0.3885 H   0  0  0  0  0  0  0  0  0  0  0  0
   -7.6339   -4.8245   -1.7333 H   0  0  0  0  0  0  0  0  0  0  0  0
   -8.0804   -6.5567   -1.6883 H   0  0  0  0  0  0  0  0  0  0  0  0
   -6.9969   -4.9045   -3.6781 H   0  0  0  0  0  0  0  0  0  0  0  0
   -5.5515   -5.6492   -4.3532 H   0  0  0  0  0  0  0  0  0  0  0  0
   -5.4435   -4.2314   -3.1710 H   0  0  0  0  0  0  0  0  0  0  0  0
   -6.1342   -8.1569    0.5005 H   0  0  0  0  0  0  0  0  0  0  0  0
   -4.7120   -8.6065   -0.6123 H   0  0  0  0  0  0  0  0  0  0  0  0
   -4.4916   -8.1991    1.1021 H   0  0  0  0  0  0  0  0  0  0  0  0
   -5.5600   -3.4448    2.5524 H   0  0  0  0  0  0  0  0  0  0  0  0
   -3.9589   -4.1003    2.9084 H   0  0  0  0  0  0  0  0  0  0  0  0
   -5.6595   -1.1211    1.2873 H   0  0  0  0  0  0  0  0  0  0  0  0
   -4.5170    1.0825    1.2108 H   0  0  0  0  0  0  0  0  0  0  0  0
   -0.9513   -0.7949    2.5959 H   0  0  0  0  0  0  0  0  0  0  0  0
   -2.0599   -2.8807    2.6704 H   0  0  0  0  0  0  0  0  0  0  0  0
   -0.9017    1.4394    2.2900 H   0  0  0  0  0  0  0  0  0  0  0  0
   -0.9604    4.3813    0.7309 H   0  0  0  0  0  0  0  0  0  0  0  0
   -2.0727    4.6206    3.5093 H   0  0  0  0  0  0  0  0  0  0  0  0
   -0.8904    5.7704    2.7281 H   0  0  0  0  0  0  0  0  0  0  0  0
   -3.0849    6.6498    2.6172 H   0  0  0  0  0  0  0  0  0  0  0  0
   -3.7429    5.1642    1.8631 H   0  0  0  0  0  0  0  0  0  0  0  0
   -1.7014    7.1744    0.6934 H   0  0  0  0  0  0  0  0  0  0  0  0
   -2.1421    5.6759   -0.1497 H   0  0  0  0  0  0  0  0  0  0  0  0
   -4.5865    7.1543    0.6093 H   0  0  0  0  0  0  0  0  0  0  0  0
   -5.1619    8.0570   -2.4570 H   0  0  0  0  0  0  0  0  0  0  0  0
   -4.6167    9.5226   -1.5084 H   0  0  0  0  0  0  0  0  0  0  0  0
    0.5259    2.6633    1.6142 H   0  0  0  0  0  0  0  0  0  0  0  0
    1.7134    1.8742    3.5211 H   0  0  0  0  0  0  0  0  0  0  0  0
    3.0096    3.3760    2.1403 H   0  0  0  0  0  0  0  0  0  0  0  0
    4.0475    1.6180    3.6845 H   0  0  0  0  0  0  0  0  0  0  0  0
    5.1823    2.9541    3.1488 H   0  0  0  0  0  0  0  0  0  0  0  0
    4.4629    2.9504    4.7805 H   0  0  0  0  0  0  0  0  0  0  0  0
    3.1328    5.5788    2.7322 H   0  0  0  0  0  0  0  0  0  0  0  0
    2.4950    5.3095    4.3547 H   0  0  0  0  0  0  0  0  0  0  0  0
    4.2934    5.1104    4.0062 H   0  0  0  0  0  0  0  0  0  0  0  0
    2.2886    3.7682    5.8739 H   0  0  0  0  0  0  0  0  0  0  0  0
    0.9117    2.3037    7.9374 H   0  0  0  0  0  0  0  0  0  0  0  0
    2.5788    1.5362    7.7456 H   0  0  0  0  0  0  0  0  0  0  0  0
    1.4209   -0.5251    7.0171 H   0  0  0  0  0  0  0  0  0  0  0  0
   -0.1703    0.2397    7.2708 H   0  0  0  0  0  0  0  0  0  0  0  0
    0.1339    0.6669    9.5590 H   0  0  0  0  0  0  0  0  0  0  0  0
    0.3290   -1.0994    9.2649 H   0  0  0  0  0  0  0  0  0  0  0  0
    1.8771   -0.0702   10.9495 H   0  0  0  0  0  0  0  0  0  0  0  0
    2.5892    1.0177    9.7071 H   0  0  0  0  0  0  0  0  0  0  0  0
    2.8180   -2.0582    9.8445 H   0  0  0  0  0  0  0  0  0  0  0  0
    4.0554   -0.8171   10.3091 H   0  0  0  0  0  0  0  0  0  0  0  0
    4.6701   -2.1692    5.1786 H   0  0  0  0  0  0  0  0  0  0  0  0
    6.1647   -0.2832    5.9662 H   0  0  0  0  0  0  0  0  0  0  0  0
  1  2  1  0
  2  3  1  0
  3  4  1  0
  3  5  1  0
  5  6  1  0
  6  7  1  0
  7  8  1  0
  8  9  2  0
  8 10  1  0
 10 11  1  0
 11 12  1  0
 12 13  1  0
 13 14  1  0
 14 15  1  0
 15 16  1  0
 16 17  1  0
 16 18  1  0
 18 19  2  0
 18 20  1  0
 20 21  1  0
 21 22  1  0
 21 23  1  0
 23 24  1  0
 24 25  2  0
 25 26  1  0
 26 27  2  0
 27 28  1  0
 28 29  2  0
 23 30  1  0
 15 31  1  0
 31 32  1  0
  6 33  1  0
 33 34  1  0
  5 35  1  0
 35 36  1  0
 35 37  1  0
 37 38  2  0
 37 39  1  0
 39 40  1  0
 40 41  1  0
 40 42  1  0
 39 43  1  0
 43 44  1  0
 44 45  2  0
 44 46  1  0
 46 47  1  0
 47 48  1  0
 47 49  1  0
 46 50  1  0
 50 51  1  0
 50 52  1  0
 52 53  2  0
 52 54  1  0
 54 55  1  0
 55 56  1  0
 56 57  1  0
 57 58  2  0
 58 59  1  0
 59 60  2  0
 60 61  1  0
 59 62  1  0
 62 63  1  0
 63 64  2  0
 63 65  1  0
 65 66  1  0
 66 67  1  0
 67 68  1  0
 68 69  1  0
 69 70  1  0
 70 71  2  0
 70 72  1  0
 65 73  1  0
 73 74  1  0
 74 75  2  0
 74 76  1  0
 76 77  1  0
 77 78  1  0
 77 79  1  0
 76 80  1  0
 80 81  1  0
 81 82  2  0
 81 83  1  0
 83 84  1  0
 84 85  1  0
 85 86  1  0
 86 87  1  0
 87 88  1  0
 88 89  1  0
 89 90  2  0
 89 91  1  0
 91 92  2  0
 92 93  1  0
 93 94  2  0
 14 10  1  0
 29 24  1  0
 61 56  2  0
 93 88  1  0
  1 95  1  0
  1 96  1  0
  1 97  1  0
  2 98  1  0
  2 99  1  0
  3100  1  6
  4101  1  0
  4102  1  0
  4103  1  0
  5104  1  6
  6105  1  1
  7106  1  0
  7107  1  0
 11108  1  0
 11109  1  0
 12110  1  0
 12111  1  0
 13112  1  0
 13113  1  0
 14114  1  1
 15115  1  1
 16116  1  1
 17117  1  0
 17118  1  0
 17119  1  0
 20120  1  0
 21121  1  1
 22122  1  0
 22123  1  0
 22124  1  0
 23125  1  6
 25126  1  0
 26127  1  0
 27128  1  0
 28129  1  0
 29130  1  0
 30131  1  0
 32132  1  0
 32133  1  0
 32134  1  0
 34135  1  0
 34136  1  0
 34137  1  0
 36138  1  0
 36139  1  0
 36140  1  0
 39141  1  6
 40142  1  0
 41143  1  0
 41144  1  0
 41145  1  0
 42146  1  0
 42147  1  0
 42148  1  0
 43149  1  0
 46150  1  1
 47151  1  0
 48152  1  0
 48153  1  0
 48154  1  0
 49155  1  0
 49156  1  0
 49157  1  0
 51158  1  0
 51159  1  0
 51160  1  0
 55161  1  0
 55162  1  0
 57163  1  0
 58164  1  0
 60165  1  0
 61166  1  0
 62167  1  0
 65168  1  6
 66169  1  0
 66170  1  0
 67171  1  0
 67172  1  0
 68173  1  0
 68174  1  0
 69175  1  0
 72176  1  0
 72177  1  0
 73178  1  0
 76179  1  6
 77180  1  0
 78181  1  0
 78182  1  0
 78183  1  0
 79184  1  0
 79185  1  0
 79186  1  0
 80187  1  0
 83188  1  0
 83189  1  0
 84190  1  0
 84191  1  0
 85192  1  0
 85193  1  0
 86194  1  0
 86195  1  0
 87196  1  0
 87197  1  0
 91198  1  0
 92199  1  0
M  END
$$$$

     RDKit          3D

199202  0  0  0  0  0  0  0  0999 V2000
    2.9363    2.1180   -5.4248 C   0  0  0  0  0  0  0  0  0  0  0  0
    1.5449    2.3970   -5.9244 C   0  0  0  0  0  0  0  0  0  0  0  0
    0.5779    2.7807   -4.8196 C   0  0  2  0  0  0  0  0  0  0  0  0
    1.1581    4.0388   -4.1913 C   0  0  0  0  0  0  0  0  0  0  0  0
    0.4423    1.7000   -3.8509 C   0  0  1  0  0  0  0  0  0  0  0  0
   -0.5137    1.9698   -2.6673 C   0  0  1  0  0  0  0  0  0  0  0  0
   -1.9383    1.8543   -2.9542 C   0  0  0  0  0  0  0  0  0  0  0  0
   -2.8449    2.1302   -1.7599 C   0  0  0  0  0  0  0  0  0  0  0  0
   -2.4357    2.5860   -0.6985 O   0  0  0  0  0  0  0  0  0  0  0  0
   -4.2554    1.8149   -1.9284 N   0  0  0  0  0  0  0  0  0  0  0  0
   -4.7532    1.3370   -3.1947 C   0  0  0  0  0  0  0  0  0  0  0  0
   -6.2447    1.6276   -3.0450 C   0  0  0  0  0  0  0  0  0  0  0  0
   -6.4611    1.2482   -1.5476 C   0  0  0  0  0  0  0  0  0  0  0  0
   -5.2856    1.9202   -0.9026 C   0  0  1  0  0  0  0  0  0  0  0  0
   -4.8926    1.3568    0.4126 C   0  0  1  0  0  0  0  0  0  0  0  0
   -5.9256    1.5855    1.4716 C   0  0  1  0  0  0  0  0  0  0  0  0
   -7.2250    0.9520    1.1967 C   0  0  0  0  0  0  0  0  0  0  0  0
   -5.4279    1.2215    2.8341 C   0  0  0  0  0  0  0  0  0  0  0  0
   -5.8375    0.1181    3.3341 O   0  0  0  0  0  0  0  0  0  0  0  0
   -4.5380    2.0369    3.5847 N   0  0  0  0  0  0  0  0  0  0  0  0
   -4.1571    1.5019    4.8969 C   0  0  2  0  0  0  0  0  0  0  0  0
   -5.1864    1.9782    5.9293 C   0  0  0  0  0  0  0  0  0  0  0  0
   -2.8107    1.9120    5.3489 C   0  0  1  0  0  0  0  0  0  0  0  0
   -2.7151    3.3791    5.6206 C   0  0  0  0  0  0  0  0  0  0  0  0
   -2.3059    4.3129    4.7153 C   0  0  0  0  0  0  0  0  0  0  0  0
   -2.2557    5.6376    5.1105 C   0  0  0  0  0  0  0  0  0  0  0  0
   -2.5981    6.0671    6.3781 C   0  0  0  0  0  0  0  0  0  0  0  0
   -3.0115    5.1228    7.2935 C   0  0  0  0  0  0  0  0  0  0  0  0
   -3.0594    3.8095    6.8939 C   0  0  0  0  0  0  0  0  0  0  0  0
   -2.5330    1.2683    6.5835 O   0  0  0  0  0  0  0  0  0  0  0  0
   -4.6478   -0.0143    0.2987 O   0  0  0  0  0  0  0  0  0  0  0  0
   -3.4236   -0.4225    0.7423 C   0  0  0  0  0  0  0  0  0  0  0  0
   -0.0810    0.9993   -1.7145 O   0  0  0  0  0  0  0  0  0  0  0  0
    0.6604    1.5932   -0.7340 C   0  0  0  0  0  0  0  0  0  0  0  0
    0.2940    0.3748   -4.3807 N   0  0  0  0  0  0  0  0  0  0  0  0
    1.2808   -0.6205   -3.9250 C   0  0  0  0  0  0  0  0  0  0  0  0
   -0.7167    0.0748   -5.3154 C   0  0  0  0  0  0  0  0  0  0  0  0
   -1.3673    1.0927   -5.7707 O   0  0  0  0  0  0  0  0  0  0  0  0
   -1.1330   -1.2207   -5.8479 C   0  0  1  0  0  0  0  0  0  0  0  0
   -0.3412   -1.5216   -7.1494 C   0  0  0  0  0  0  0  0  0  0  0  0
   -0.6120   -0.4528   -8.1716 C   0  0  0  0  0  0  0  0  0  0  0  0
   -0.8761   -2.8283   -7.6827 C   0  0  0  0  0  0  0  0  0  0  0  0
   -1.0005   -2.3539   -5.0050 N   0  0  0  0  0  0  0  0  0  0  0  0
   -2.1309   -3.2756   -4.9830 C   0  0  0  0  0  0  0  0  0  0  0  0
   -3.1403   -3.0576   -5.7311 O   0  0  0  0  0  0  0  0  0  0  0  0
   -2.1700   -4.4529   -4.1303 C   0  0  1  0  0  0  0  0  0  0  0  0
   -3.4345   -4.2008   -3.2072 C   0  0  0  0  0  0  0  0  0  0  0  0
   -3.5993   -5.3548   -2.2630 C   0  0  0  0  0  0  0  0  0  0  0  0
   -3.2315   -2.9417   -2.4054 C   0  0  0  0  0  0  0  0  0  0  0  0
   -2.4928   -5.7154   -4.7229 N   0  0  0  0  0  0  0  0  0  0  0  0
   -3.4683   -5.8981   -5.7741 C   0  0  0  0  0  0  0  0  0  0  0  0
   -1.7580   -6.8603   -4.1991 C   0  0  0  0  0  0  0  0  0  0  0  0
   -1.9495   -8.0180   -4.6217 O   0  0  0  0  0  0  0  0  0  0  0  0
   -0.8388   -6.6428   -3.2112 O   0  0  0  0  0  0  0  0  0  0  0  0
   -0.0418   -7.5903   -2.5361 C   0  0  0  0  0  0  0  0  0  0  0  0
    0.8317   -6.8855   -1.5348 C   0  0  0  0  0  0  0  0  0  0  0  0
    0.1775   -6.4858   -0.3776 C   0  0  0  0  0  0  0  0  0  0  0  0
    0.8721   -5.8368    0.6114 C   0  0  0  0  0  0  0  0  0  0  0  0
    2.2359   -5.5898    0.4339 C   0  0  0  0  0  0  0  0  0  0  0  0
    2.8677   -5.9933   -0.7145 C   0  0  0  0  0  0  0  0  0  0  0  0
    2.1656   -6.6559   -1.7297 C   0  0  0  0  0  0  0  0  0  0  0  0
    2.8595   -4.8714    1.4907 N   0  0  0  0  0  0  0  0  0  0  0  0
    3.2298   -3.4993    1.3671 C   0  0  0  0  0  0  0  0  0  0  0  0
    2.9959   -2.9611    0.2524 O   0  0  0  0  0  0  0  0  0  0  0  0
    3.8360   -2.7421    2.4273 C   0  0  1  0  0  0  0  0  0  0  0  0
    4.7620   -3.5920    3.2637 C   0  0  0  0  0  0  0  0  0  0  0  0
    5.3874   -2.8674    4.4137 C   0  0  0  0  0  0  0  0  0  0  0  0
    4.3336   -2.3247    5.3679 C   0  0  0  0  0  0  0  0  0  0  0  0
    4.9549   -1.6247    6.4946 N   0  0  0  0  0  0  0  0  0  0  0  0
    4.0427   -1.0719    7.4469 C   0  0  0  0  0  0  0  0  0  0  0  0
    2.8229   -1.2222    7.2567 O   0  0  0  0  0  0  0  0  0  0  0  0
    4.5900   -0.3733    8.5690 N   0  0  0  0  0  0  0  0  0  0  0  0
    4.3986   -1.4635    2.0401 N   0  0  0  0  0  0  0  0  0  0  0  0
    5.7630   -1.3200    1.6837 C   0  0  0  0  0  0  0  0  0  0  0  0
    6.5816   -2.2929    1.6481 O   0  0  0  0  0  0  0  0  0  0  0  0
    6.3830    0.0022    1.3152 C   0  0  1  0  0  0  0  0  0  0  0  0
    7.0162   -0.0978   -0.0355 C   0  0  0  0  0  0  0  0  0  0  0  0
    8.1044   -1.1405   -0.0982 C   0  0  0  0  0  0  0  0  0  0  0  0
    7.6250    1.2296   -0.4409 C   0  0  0  0  0  0  0  0  0  0  0  0
    5.3654    1.0185    1.2940 N   0  0  0  0  0  0  0  0  0  0  0  0
    5.1301    1.8803    2.4185 C   0  0  0  0  0  0  0  0  0  0  0  0
    5.8135    1.7336    3.4608 O   0  0  0  0  0  0  0  0  0  0  0  0
    4.0712    2.9004    2.2527 C   0  0  0  0  0  0  0  0  0  0  0  0
    3.5957    3.5403    3.5095 C   0  0  0  0  0  0  0  0  0  0  0  0
    2.5548    4.6153    3.2544 C   0  0  0  0  0  0  0  0  0  0  0  0
    1.3736    4.0998    2.5005 C   0  0  0  0  0  0  0  0  0  0  0  0
    0.3387    5.1787    2.3068 C   0  0  0  0  0  0  0  0  0  0  0  0
    0.9378    6.2865    1.5981 N   0  0  0  0  0  0  0  0  0  0  0  0
    1.0865    6.5613    0.2255 C   0  0  0  0  0  0  0  0  0  0  0  0
    0.6923    5.7932   -0.7138 O   0  0  0  0  0  0  0  0  0  0  0  0
    1.7585    7.8566    0.1081 C   0  0  0  0  0  0  0  0  0  0  0  0
    2.0198    8.3700    1.2916 C   0  0  0  0  0  0  0  0  0  0  0  0
    1.5158    7.4059    2.2815 C   0  0  0  0  0  0  0  0  0  0  0  0
    1.6132    7.6036    3.5327 O   0  0  0  0  0  0  0  0  0  0  0  0
    3.6904    2.7177   -5.9907 H   0  0  0  0  0  0  0  0  0  0  0  0
    3.1029    2.2765   -4.3626 H   0  0  0  0  0  0  0  0  0  0  0  0
    3.2163    1.0365   -5.6037 H   0  0  0  0  0  0  0  0  0  0  0  0
    1.5929    3.3065   -6.5849 H   0  0  0  0  0  0  0  0  0  0  0  0
    1.1684    1.5960   -6.5624 H   0  0  0  0  0  0  0  0  0  0  0  0
   -0.3519    3.1130   -5.3219 H   0  0  0  0  0  0  0  0  0  0  0  0
    0.3971    4.5031   -3.4951 H   0  0  0  0  0  0  0  0  0  0  0  0
    1.3739    4.8248   -4.9445 H   0  0  0  0  0  0  0  0  0  0  0  0
    2.0570    3.8466   -3.6063 H   0  0  0  0  0  0  0  0  0  0  0  0
    1.4383    1.6759   -3.2468 H   0  0  0  0  0  0  0  0  0  0  0  0
   -0.2205    2.9414   -2.2681 H   0  0  0  0  0  0  0  0  0  0  0  0
   -2.2815    0.8409   -3.2722 H   0  0  0  0  0  0  0  0  0  0  0  0
   -2.2995    2.5710   -3.7155 H   0  0  0  0  0  0  0  0  0  0  0  0
   -4.5548    0.2649   -3.3908 H   0  0  0  0  0  0  0  0  0  0  0  0
   -4.2905    1.9854   -3.9876 H   0  0  0  0  0  0  0  0  0  0  0  0
   -6.7801    0.9356   -3.7090 H   0  0  0  0  0  0  0  0  0  0  0  0
   -6.4514    2.6894   -3.2194 H   0  0  0  0  0  0  0  0  0  0  0  0
   -6.3060    0.1492   -1.5464 H   0  0  0  0  0  0  0  0  0  0  0  0
   -7.4432    1.6114   -1.2872 H   0  0  0  0  0  0  0  0  0  0  0  0
   -5.4652    3.0217   -0.7746 H   0  0  0  0  0  0  0  0  0  0  0  0
   -3.9652    1.8696    0.8275 H   0  0  0  0  0  0  0  0  0  0  0  0
   -6.0562    2.7190    1.5477 H   0  0  0  0  0  0  0  0  0  0  0  0
   -7.9977    1.7317    0.9375 H   0  0  0  0  0  0  0  0  0  0  0  0
   -7.6335    0.5524    2.1860 H   0  0  0  0  0  0  0  0  0  0  0  0
   -7.2316    0.0918    0.5321 H   0  0  0  0  0  0  0  0  0  0  0  0
   -4.1911    2.9411    3.2161 H   0  0  0  0  0  0  0  0  0  0  0  0
   -4.2732    0.4171    4.8695 H   0  0  0  0  0  0  0  0  0  0  0  0
   -5.1904    3.0667    6.0494 H   0  0  0  0  0  0  0  0  0  0  0  0
   -6.1716    1.5844    5.5845 H   0  0  0  0  0  0  0  0  0  0  0  0
   -4.9848    1.4981    6.8978 H   0  0  0  0  0  0  0  0  0  0  0  0
   -2.0293    1.5529    4.6490 H   0  0  0  0  0  0  0  0  0  0  0  0
   -2.0377    3.9879    3.7251 H   0  0  0  0  0  0  0  0  0  0  0  0
   -1.9369    6.4293    4.4236 H   0  0  0  0  0  0  0  0  0  0  0  0
   -2.5507    7.1088    6.6689 H   0  0  0  0  0  0  0  0  0  0  0  0
   -3.2806    5.4571    8.2949 H   0  0  0  0  0  0  0  0  0  0  0  0
   -3.3932    3.0979    7.6658 H   0  0  0  0  0  0  0  0  0  0  0  0
   -1.7036    0.7558    6.5519 H   0  0  0  0  0  0  0  0  0  0  0  0
   -2.6117    0.0455    0.1940 H   0  0  0  0  0  0  0  0  0  0  0  0
   -3.2918   -0.2919    1.8492 H   0  0  0  0  0  0  0  0  0  0  0  0
   -3.3900   -1.5475    0.6120 H   0  0  0  0  0  0  0  0  0  0  0  0
    1.0171    0.8913    0.0517 H   0  0  0  0  0  0  0  0  0  0  0  0
    0.1603    2.4383   -0.2523 H   0  0  0  0  0  0  0  0  0  0  0  0
    1.6139    2.0243   -1.1492 H   0  0  0  0  0  0  0  0  0  0  0  0
    0.9413   -1.1913   -3.0465 H   0  0  0  0  0  0  0  0  0  0  0  0
    2.1886   -0.0553   -3.5137 H   0  0  0  0  0  0  0  0  0  0  0  0
    1.6118   -1.2977   -4.7101 H   0  0  0  0  0  0  0  0  0  0  0  0
   -2.1745   -1.1496   -6.2187 H   0  0  0  0  0  0  0  0  0  0  0  0
    0.7258   -1.6575   -6.9502 H   0  0  0  0  0  0  0  0  0  0  0  0
   -1.5393    0.0712   -7.8637 H   0  0  0  0  0  0  0  0  0  0  0  0
    0.2380    0.2468   -8.3098 H   0  0  0  0  0  0  0  0  0  0  0  0
   -0.7799   -0.9380   -9.1510 H   0  0  0  0  0  0  0  0  0  0  0  0
   -0.2532   -3.0994   -8.5859 H   0  0  0  0  0  0  0  0  0  0  0  0
   -0.7865   -3.6659   -6.9872 H   0  0  0  0  0  0  0  0  0  0  0  0
   -1.9007   -2.6881   -8.1135 H   0  0  0  0  0  0  0  0  0  0  0  0
   -0.2232   -2.6408   -4.3984 H   0  0  0  0  0  0  0  0  0  0  0  0
   -1.3643   -4.5335   -3.4045 H   0  0  0  0  0  0  0  0  0  0  0  0
   -4.2774   -4.1611   -3.8975 H   0  0  0  0  0  0  0  0  0  0  0  0
   -3.6952   -6.3296   -2.7843 H   0  0  0  0  0  0  0  0  0  0  0  0
   -2.7856   -5.3313   -1.5276 H   0  0  0  0  0  0  0  0  0  0  0  0
   -4.5372   -5.1540   -1.6917 H   0  0  0  0  0  0  0  0  0  0  0  0
   -3.0292   -3.1758   -1.3388 H   0  0  0  0  0  0  0  0  0  0  0  0
   -2.4192   -2.3240   -2.8325 H   0  0  0  0  0  0  0  0  0  0  0  0
   -4.1970   -2.3894   -2.3966 H   0  0  0  0  0  0  0  0  0  0  0  0
   -4.3286   -5.2043   -5.6671 H   0  0  0  0  0  0  0  0  0  0  0  0
   -3.8990   -6.9236   -5.7605 H   0  0  0  0  0  0  0  0  0  0  0  0
   -2.9797   -5.7817   -6.7634 H   0  0  0  0  0  0  0  0  0  0  0  0
   -0.6278   -8.3428   -1.9703 H   0  0  0  0  0  0  0  0  0  0  0  0
    0.6636   -8.0451   -3.2768 H   0  0  0  0  0  0  0  0  0  0  0  0
   -0.8921   -6.6763   -0.2244 H   0  0  0  0  0  0  0  0  0  0  0  0
    0.3347   -5.5397    1.4934 H   0  0  0  0  0  0  0  0  0  0  0  0
    3.9080   -5.7866   -0.8161 H   0  0  0  0  0  0  0  0  0  0  0  0
    2.6282   -6.9812   -2.6337 H   0  0  0  0  0  0  0  0  0  0  0  0
    3.0327   -5.4191    2.3764 H   0  0  0  0  0  0  0  0  0  0  0  0
    3.0271   -2.4563    3.1855 H   0  0  0  0  0  0  0  0  0  0  0  0
    5.5491   -4.0793    2.6704 H   0  0  0  0  0  0  0  0  0  0  0  0
    4.1780   -4.4472    3.7191 H   0  0  0  0  0  0  0  0  0  0  0  0
    5.9208   -3.6691    5.0127 H   0  0  0  0  0  0  0  0  0  0  0  0
    6.1345   -2.1217    4.1997 H   0  0  0  0  0  0  0  0  0  0  0  0
    3.7613   -1.5400    4.8253 H   0  0  0  0  0  0  0  0  0  0  0  0
    3.6780   -3.0964    5.7658 H   0  0  0  0  0  0  0  0  0  0  0  0
    5.9931   -1.5387    6.5917 H   0  0  0  0  0  0  0  0  0  0  0  0
    5.0244   -0.9010    9.3363 H   0  0  0  0  0  0  0  0  0  0  0  0
    4.5234    0.6704    8.5669 H   0  0  0  0  0  0  0  0  0  0  0  0
    3.8032   -0.5882    2.0110 H   0  0  0  0  0  0  0  0  0  0  0  0
    7.1312    0.2595    2.1220 H   0  0  0  0  0  0  0  0  0  0  0  0
    6.2352   -0.3379   -0.7816 H   0  0  0  0  0  0  0  0  0  0  0  0
    8.6907   -1.1834    0.8551 H   0  0  0  0  0  0  0  0  0  0  0  0
    8.8688   -0.8572   -0.8656 H   0  0  0  0  0  0  0  0  0  0  0  0
    7.6980   -2.1186   -0.4099 H   0  0  0  0  0  0  0  0  0  0  0  0
    8.3951    1.5859    0.2517 H   0  0  0  0  0  0  0  0  0  0  0  0
    6.8539    2.0126   -0.5521 H   0  0  0  0  0  0  0  0  0  0  0  0
    8.1165    1.1551   -1.4356 H   0  0  0  0  0  0  0  0  0  0  0  0
    4.7812    1.1314    0.4311 H   0  0  0  0  0  0  0  0  0  0  0  0
    3.1867    2.4884    1.7000 H   0  0  0  0  0  0  0  0  0  0  0  0
    4.5088    3.6999    1.6127 H   0  0  0  0  0  0  0  0  0  0  0  0
    4.4454    4.0294    4.0486 H   0  0  0  0  0  0  0  0  0  0  0  0
    3.1417    2.8242    4.2352 H   0  0  0  0  0  0  0  0  0  0  0  0
    3.0496    5.4668    2.7146 H   0  0  0  0  0  0  0  0  0  0  0  0
    2.2051    5.0198    4.2222 H   0  0  0  0  0  0  0  0  0  0  0  0
    0.8987    3.2268    2.9928 H   0  0  0  0  0  0  0  0  0  0  0  0
    1.6447    3.7497    1.4701 H   0  0  0  0  0  0  0  0  0  0  0  0
   -0.0603    5.5491    3.2765 H   0  0  0  0  0  0  0  0  0  0  0  0
   -0.4895    4.7220    1.6892 H   0  0  0  0  0  0  0  0  0  0  0  0
    2.0296    8.3728   -0.8271 H   0  0  0  0  0  0  0  0  0  0  0  0
    2.5126    9.3194    1.5188 H   0  0  0  0  0  0  0  0  0  0  0  0
  1  2  1  0
  2  3  1  0
  3  4  1  0
  3  5  1  0
  5  6  1  0
  6  7  1  0
  7  8  1  0
  8  9  2  0
  8 10  1  0
 10 11  1  0
 11 12  1  0
 12 13  1  0
 13 14  1  0
 14 15  1  0
 15 16  1  0
 16 17  1  0
 16 18  1  0
 18 19  2  0
 18 20  1  0
 20 21  1  0
 21 22  1  0
 21 23  1  0
 23 24  1  0
 24 25  2  0
 25 26  1  0
 26 27  2  0
 27 28  1  0
 28 29  2  0
 23 30  1  0
 15 31  1  0
 31 32  1  0
  6 33  1  0
 33 34  1  0
  5 35  1  0
 35 36  1  0
 35 37  1  0
 37 38  2  0
 37 39  1  0
 39 40  1  0
 40 41  1  0
 40 42  1  0
 39 43  1  0
 43 44  1  0
 44 45  2  0
 44 46  1  0
 46 47  1  0
 47 48  1  0
 47 49  1  0
 46 50  1  0
 50 51  1  0
 50 52  1  0
 52 53  2  0
 52 54  1  0
 54 55  1  0
 55 56  1  0
 56 57  1  0
 57 58  2  0
 58 59  1  0
 59 60  2  0
 60 61  1  0
 59 62  1  0
 62 63  1  0
 63 64  2  0
 63 65  1  0
 65 66  1  0
 66 67  1  0
 67 68  1  0
 68 69  1  0
 69 70  1  0
 70 71  2  0
 70 72  1  0
 65 73  1  0
 73 74  1  0
 74 75  2  0
 74 76  1  0
 76 77  1  0
 77 78  1  0
 77 79  1  0
 76 80  1  0
 80 81  1  0
 81 82  2  0
 81 83  1  0
 83 84  1  0
 84 85  1  0
 85 86  1  0
 86 87  1  0
 87 88  1  0
 88 89  1  0
 89 90  2  0
 89 91  1  0
 91 92  2  0
 92 93  1  0
 93 94  2  0
 14 10  1  0
 29 24  1  0
 61 56  2  0
 93 88  1  0
  1 95  1  0
  1 96  1  0
  1 97  1  0
  2 98  1  0
  2 99  1  0
  3100  1  6
  4101  1  0
  4102  1  0
  4103  1  0
  5104  1  1
  6105  1  1
  7106  1  0
  7107  1  0
 11108  1  0
 11109  1  0
 12110  1  0
 12111  1  0
 13112  1  0
 13113  1  0
 14114  1  1
 15115  1  1
 16116  1  1
 17117  1  0
 17118  1  0
 17119  1  0
 20120  1  0
 21121  1  6
 22122  1  0
 22123  1  0
 22124  1  0
 23125  1  6
 25126  1  0
 26127  1  0
 27128  1  0
 28129  1  0
 29130  1  0
 30131  1  0
 32132  1  0
 32133  1  0
 32134  1  0
 34135  1  0
 34136  1  0
 34137  1  0
 36138  1  0
 36139  1  0
 36140  1  0
 39141  1  6
 40142  1  0
 41143  1  0
 41144  1  0
 41145  1  0
 42146  1  0
 42147  1  0
 42148  1  0
 43149  1  0
 46150  1  1
 47151  1  0
 48152  1  0
 48153  1  0
 48154  1  0
 49155  1  0
 49156  1  0
 49157  1  0
 51158  1  0
 51159  1  0
 51160  1  0
 55161  1  0
 55162  1  0
 57163  1  0
 58164  1  0
 60165  1  0
 61166  1  0
 62167  1  0
 65168  1  1
 66169  1  0
 66170  1  0
 67171  1  0
 67172  1  0
 68173  1  0
 68174  1  0
 69175  1  0
 72176  1  0
 72177  1  0
 73178  1  0
 76179  1  1
 77180  1  0
 78181  1  0
 78182  1  0
 78183  1  0
 79184  1  0
 79185  1  0
 79186  1  0
 80187  1  0
 83188  1  0
 83189  1  0
 84190  1  0
 84191  1  0
 85192  1  0
 85193  1  0
 86194  1  0
 86195  1  0
 87196  1  0
 87197  1  0
 91198  1  0
 92199  1  0
M  END
$$$$

     RDKit          3D

199202  0  0  0  0  0  0  0  0999 V2000
   -3.9669   -3.7985    5.1550 C   0  0  0  0  0  0  0  0  0  0  0  0
   -3.5243   -2.4545    5.6703 C   0  0  0  0  0  0  0  0  0  0  0  0
   -4.0742   -1.2874    4.8682 C   0  0  2  0  0  0  0  0  0  0  0  0
   -5.5794   -1.4733    4.9418 C   0  0  0  0  0  0  0  0  0  0  0  0
   -3.6113   -1.2464    3.4188 C   0  0  1  0  0  0  0  0  0  0  0  0
   -4.1868   -0.0262    2.8205 C   0  0  1  0  0  0  0  0  0  0  0  0
   -3.7731    0.3262    1.3988 C   0  0  0  0  0  0  0  0  0  0  0  0
   -4.5058    1.5806    0.9845 C   0  0  0  0  0  0  0  0  0  0  0  0
   -5.6892    1.3473    0.5390 O   0  0  0  0  0  0  0  0  0  0  0  0
   -3.9895    2.8889    1.0753 N   0  0  0  0  0  0  0  0  0  0  0  0
   -2.6222    3.3407    1.3903 C   0  0  0  0  0  0  0  0  0  0  0  0
   -2.7790    4.5270    2.3308 C   0  0  0  0  0  0  0  0  0  0  0  0
   -4.2503    4.7793    2.3032 C   0  0  0  0  0  0  0  0  0  0  0  0
   -4.7639    4.0816    1.0353 C   0  0  1  0  0  0  0  0  0  0  0  0
   -4.8498    5.0143   -0.0715 C   0  0  1  0  0  0  0  0  0  0  0  0
   -5.3227    4.4943   -1.3942 C   0  0  1  0  0  0  0  0  0  0  0  0
   -5.5019    5.7259   -2.3303 C   0  0  0  0  0  0  0  0  0  0  0  0
   -4.2730    3.7104   -2.1371 C   0  0  0  0  0  0  0  0  0  0  0  0
   -4.4553    2.5145   -2.4886 O   0  0  0  0  0  0  0  0  0  0  0  0
   -3.0506    4.4005   -2.4430 N   0  0  0  0  0  0  0  0  0  0  0  0
   -1.9702    3.8605   -3.1984 C   0  0  2  0  0  0  0  0  0  0  0  0
   -0.8683    3.1865   -2.4533 C   0  0  0  0  0  0  0  0  0  0  0  0
   -1.3560    4.8235   -4.1539 C   0  0  1  0  0  0  0  0  0  0  0  0
   -0.5958    5.9355   -3.5250 C   0  0  0  0  0  0  0  0  0  0  0  0
   -0.4939    6.1710   -2.1844 C   0  0  0  0  0  0  0  0  0  0  0  0
    0.2471    7.2741   -1.7633 C   0  0  0  0  0  0  0  0  0  0  0  0
    0.8767    8.1264   -2.6423 C   0  0  0  0  0  0  0  0  0  0  0  0
    0.7741    7.8865   -3.9986 C   0  0  0  0  0  0  0  0  0  0  0  0
    0.0408    6.7969   -4.4216 C   0  0  0  0  0  0  0  0  0  0  0  0
   -0.3575    4.1205   -4.8912 O   0  0  0  0  0  0  0  0  0  0  0  0
   -5.6646    6.1220    0.2914 O   0  0  0  0  0  0  0  0  0  0  0  0
   -5.0157    7.3258    0.1942 C   0  0  0  0  0  0  0  0  0  0  0  0
   -5.5700    0.0977    2.8519 O   0  0  0  0  0  0  0  0  0  0  0  0
   -6.0428    1.2105    3.5034 C   0  0  0  0  0  0  0  0  0  0  0  0
   -2.1380   -1.3545    3.3837 N   0  0  0  0  0  0  0  0  0  0  0  0
   -1.4238   -0.1748    3.8228 C   0  0  0  0  0  0  0  0  0  0  0  0
   -1.4879   -2.5380    2.9210 C   0  0  0  0  0  0  0  0  0  0  0  0
   -2.2441   -3.4956    2.5130 O   0  0  0  0  0  0  0  0  0  0  0  0
   -0.0561   -2.7828    2.8629 C   0  0  1  0  0  0  0  0  0  0  0  0
    0.6548   -2.5400    4.1967 C   0  0  0  0  0  0  0  0  0  0  0  0
    0.0632   -3.4732    5.2466 C   0  0  0  0  0  0  0  0  0  0  0  0
    2.1384   -2.8978    4.0078 C   0  0  0  0  0  0  0  0  0  0  0  0
    0.3522   -4.1300    2.5292 N   0  0  0  0  0  0  0  0  0  0  0  0
    0.8897   -4.6372    1.3527 C   0  0  0  0  0  0  0  0  0  0  0  0
    1.1045   -3.9887    0.2905 O   0  0  0  0  0  0  0  0  0  0  0  0
    1.2457   -6.1369    1.3959 C   0  0  1  0  0  0  0  0  0  0  0  0
    1.8337   -6.6606    0.1908 C   0  0  0  0  0  0  0  0  0  0  0  0
    0.9527   -6.5373   -1.0422 C   0  0  0  0  0  0  0  0  0  0  0  0
    2.0700   -8.1645    0.3678 C   0  0  0  0  0  0  0  0  0  0  0  0
    1.9798   -6.3496    2.6028 N   0  0  0  0  0  0  0  0  0  0  0  0
    1.3346   -6.9189    3.8028 C   0  0  0  0  0  0  0  0  0  0  0  0
    3.3920   -6.0636    2.7392 C   0  0  0  0  0  0  0  0  0  0  0  0
    3.8648   -6.0150    3.9098 O   0  0  0  0  0  0  0  0  0  0  0  0
    4.2382   -5.8503    1.6956 O   0  0  0  0  0  0  0  0  0  0  0  0
    5.6196   -5.4627    1.7610 C   0  0  0  0  0  0  0  0  0  0  0  0
    5.6293   -3.9988    2.0205 C   0  0  0  0  0  0  0  0  0  0  0  0
    5.7633   -3.2362    0.8359 C   0  0  0  0  0  0  0  0  0  0  0  0
    5.6412   -1.8753    0.8221 C   0  0  0  0  0  0  0  0  0  0  0  0
    5.3746   -1.2449    2.0174 C   0  0  0  0  0  0  0  0  0  0  0  0
    5.2463   -1.9381    3.1892 C   0  0  0  0  0  0  0  0  0  0  0  0
    5.3806   -3.3457    3.1719 C   0  0  0  0  0  0  0  0  0  0  0  0
    5.0411    0.1831    1.9115 N   0  0  0  0  0  0  0  0  0  0  0  0
    4.0901    0.4298    0.9426 C   0  0  0  0  0  0  0  0  0  0  0  0
    3.7183   -0.6850    0.3128 O   0  0  0  0  0  0  0  0  0  0  0  0
    3.3603    1.5786    0.4019 C   0  0  1  0  0  0  0  0  0  0  0  0
    4.0355    2.7987    0.0322 C   0  0  0  0  0  0  0  0  0  0  0  0
    4.7392    3.4792    1.1562 C   0  0  0  0  0  0  0  0  0  0  0  0
    3.7668    3.8303    2.2646 C   0  0  0  0  0  0  0  0  0  0  0  0
    4.4004    4.4949    3.3812 N   0  0  0  0  0  0  0  0  0  0  0  0
    3.5378    4.8509    4.4740 C   0  0  0  0  0  0  0  0  0  0  0  0
    2.3083    4.6061    4.4744 O   0  0  0  0  0  0  0  0  0  0  0  0
    4.0612    5.5157    5.6345 N   0  0  0  0  0  0  0  0  0  0  0  0
    2.7594    0.8890   -0.8191 N   0  0  0  0  0  0  0  0  0  0  0  0
    1.6735   -0.0063   -0.6332 C   0  0  0  0  0  0  0  0  0  0  0  0
    1.2308   -0.1507    0.5317 O   0  0  0  0  0  0  0  0  0  0  0  0
    1.1348   -0.7348   -1.8157 C   0  0  1  0  0  0  0  0  0  0  0  0
   -0.2685   -1.1363   -1.6558 C   0  0  0  0  0  0  0  0  0  0  0  0
   -1.2637   -0.0523   -1.4236 C   0  0  0  0  0  0  0  0  0  0  0  0
   -0.7769   -1.9492   -2.8533 C   0  0  0  0  0  0  0  0  0  0  0  0
    1.5741   -0.1498   -3.0489 N   0  0  0  0  0  0  0  0  0  0  0  0
    2.6335   -0.7239   -3.8485 C   0  0  0  0  0  0  0  0  0  0  0  0
    3.1370   -1.7680   -3.3952 O   0  0  0  0  0  0  0  0  0  0  0  0
    2.9995   -0.0323   -5.0858 C   0  0  0  0  0  0  0  0  0  0  0  0
    3.8837   -0.8192   -5.9721 C   0  0  0  0  0  0  0  0  0  0  0  0
    3.3678   -2.0298   -6.6407 C   0  0  0  0  0  0  0  0  0  0  0  0
    2.8262   -3.1662   -5.8889 C   0  0  0  0  0  0  0  0  0  0  0  0
    2.4434   -4.2836   -6.9053 C   0  0  0  0  0  0  0  0  0  0  0  0
    1.4902   -3.8396   -7.8666 N   0  0  0  0  0  0  0  0  0  0  0  0
    0.0776   -3.8643   -7.7336 C   0  0  0  0  0  0  0  0  0  0  0  0
   -0.6288   -4.2557   -6.7632 O   0  0  0  0  0  0  0  0  0  0  0  0
   -0.4682   -3.3290   -8.9830 C   0  0  0  0  0  0  0  0  0  0  0  0
    0.5328   -3.0071   -9.8090 C   0  0  0  0  0  0  0  0  0  0  0  0
    1.8052   -3.3124   -9.1470 C   0  0  0  0  0  0  0  0  0  0  0  0
    2.9070   -3.1050   -9.7061 O   0  0  0  0  0  0  0  0  0  0  0  0
   -4.3952   -3.7734    4.1310 H   0  0  0  0  0  0  0  0  0  0  0  0
   -3.0902   -4.4694    5.1295 H   0  0  0  0  0  0  0  0  0  0  0  0
   -4.6777   -4.3007    5.8677 H   0  0  0  0  0  0  0  0  0  0  0  0
   -4.0291   -2.3301    6.6826 H   0  0  0  0  0  0  0  0  0  0  0  0
   -2.4653   -2.3524    5.8893 H   0  0  0  0  0  0  0  0  0  0  0  0
   -3.7120   -0.3644    5.3489 H   0  0  0  0  0  0  0  0  0  0  0  0
   -5.8271   -2.4482    5.5255 H   0  0  0  0  0  0  0  0  0  0  0  0
   -6.0919   -0.7266    5.5735 H   0  0  0  0  0  0  0  0  0  0  0  0
   -6.0430   -1.6910    3.9709 H   0  0  0  0  0  0  0  0  0  0  0  0
   -4.0162   -2.1787    2.9402 H   0  0  0  0  0  0  0  0  0  0  0  0
   -3.8576    0.9140    3.4076 H   0  0  0  0  0  0  0  0  0  0  0  0
   -4.0526   -0.5362    0.7637 H   0  0  0  0  0  0  0  0  0  0  0  0
   -2.6783    0.4563    1.3131 H   0  0  0  0  0  0  0  0  0  0  0  0
   -1.9802    2.5522    1.7699 H   0  0  0  0  0  0  0  0  0  0  0  0
   -2.2493    3.7627    0.4542 H   0  0  0  0  0  0  0  0  0  0  0  0
   -2.3622    4.2794    3.3306 H   0  0  0  0  0  0  0  0  0  0  0  0
   -2.1910    5.4011    1.9722 H   0  0  0  0  0  0  0  0  0  0  0  0
   -4.7682    4.3497    3.2026 H   0  0  0  0  0  0  0  0  0  0  0  0
   -4.4548    5.8438    2.3276 H   0  0  0  0  0  0  0  0  0  0  0  0
   -5.8558    3.7946    1.3655 H   0  0  0  0  0  0  0  0  0  0  0  0
   -3.8541    5.4990   -0.2696 H   0  0  0  0  0  0  0  0  0  0  0  0
   -6.2737    3.9708   -1.4047 H   0  0  0  0  0  0  0  0  0  0  0  0
   -5.9604    5.2702   -3.2756 H   0  0  0  0  0  0  0  0  0  0  0  0
   -4.5705    6.1497   -2.6679 H   0  0  0  0  0  0  0  0  0  0  0  0
   -6.2829    6.3934   -1.9682 H   0  0  0  0  0  0  0  0  0  0  0  0
   -2.9741    5.3639   -2.0811 H   0  0  0  0  0  0  0  0  0  0  0  0
   -2.4452    3.0243   -3.8216 H   0  0  0  0  0  0  0  0  0  0  0  0
    0.0673    3.8114   -2.5635 H   0  0  0  0  0  0  0  0  0  0  0  0
   -1.0873    3.1157   -1.4059 H   0  0  0  0  0  0  0  0  0  0  0  0
   -0.5658    2.2225   -2.9376 H   0  0  0  0  0  0  0  0  0  0  0  0
   -2.0993    5.2065   -4.8963 H   0  0  0  0  0  0  0  0  0  0  0  0
   -0.9131    5.5803   -1.4024 H   0  0  0  0  0  0  0  0  0  0  0  0
    0.3443    7.4931   -0.6931 H   0  0  0  0  0  0  0  0  0  0  0  0
    1.4387    8.9626   -2.2293 H   0  0  0  0  0  0  0  0  0  0  0  0
    1.2777    8.5715   -4.6499 H   0  0  0  0  0  0  0  0  0  0  0  0
   -0.0187    6.6420   -5.4886 H   0  0  0  0  0  0  0  0  0  0  0  0
   -0.5771    4.1053   -5.8449 H   0  0  0  0  0  0  0  0  0  0  0  0
   -4.6503    7.5900   -0.8231 H   0  0  0  0  0  0  0  0  0  0  0  0
   -4.1773    7.5171    0.8573 H   0  0  0  0  0  0  0  0  0  0  0  0
   -5.7747    8.1279    0.4205 H   0  0  0  0  0  0  0  0  0  0  0  0
   -7.1744    1.2325    3.4952 H   0  0  0  0  0  0  0  0  0  0  0  0
   -5.7362    1.3218    4.5651 H   0  0  0  0  0  0  0  0  0  0  0  0
   -5.7706    2.1855    3.0517 H   0  0  0  0  0  0  0  0  0  0  0  0
   -0.4473   -0.0232    3.3165 H   0  0  0  0  0  0  0  0  0  0  0  0
   -1.2293   -0.2089    4.9085 H   0  0  0  0  0  0  0  0  0  0  0  0
   -1.9789    0.7796    3.5596 H   0  0  0  0  0  0  0  0  0  0  0  0
    0.3862   -2.1571    2.0566 H   0  0  0  0  0  0  0  0  0  0  0  0
    0.6165   -1.5563    4.5947 H   0  0  0  0  0  0  0  0  0  0  0  0
    0.8304   -4.2277    5.5237 H   0  0  0  0  0  0  0  0  0  0  0  0
   -0.8108   -4.0042    4.8840 H   0  0  0  0  0  0  0  0  0  0  0  0
   -0.1769   -2.9462    6.1858 H   0  0  0  0  0  0  0  0  0  0  0  0
    2.3857   -2.9677    2.9264 H   0  0  0  0  0  0  0  0  0  0  0  0
    2.7210   -2.1739    4.5728 H   0  0  0  0  0  0  0  0  0  0  0  0
    2.2359   -3.9281    4.4004 H   0  0  0  0  0  0  0  0  0  0  0  0
    0.1968   -4.8290    3.3319 H   0  0  0  0  0  0  0  0  0  0  0  0
    0.1980   -6.5554    1.5596 H   0  0  0  0  0  0  0  0  0  0  0  0
    2.8286   -6.2402   -0.0745 H   0  0  0  0  0  0  0  0  0  0  0  0
    1.0310   -5.5341   -1.4697 H   0  0  0  0  0  0  0  0  0  0  0  0
   -0.0665   -6.8574   -0.7491 H   0  0  0  0  0  0  0  0  0  0  0  0
    1.3230   -7.2601   -1.7974 H   0  0  0  0  0  0  0  0  0  0  0  0
    1.1013   -8.7195    0.3234 H   0  0  0  0  0  0  0  0  0  0  0  0
    2.4807   -8.3931    1.3711 H   0  0  0  0  0  0  0  0  0  0  0  0
    2.7021   -8.5703   -0.4349 H   0  0  0  0  0  0  0  0  0  0  0  0
    0.2996   -7.1978    3.6335 H   0  0  0  0  0  0  0  0  0  0  0  0
    1.8826   -7.9036    3.9355 H   0  0  0  0  0  0  0  0  0  0  0  0
    1.5624   -6.3526    4.7093 H   0  0  0  0  0  0  0  0  0  0  0  0
    6.1467   -6.0237    2.5590 H   0  0  0  0  0  0  0  0  0  0  0  0
    6.1615   -5.6690    0.8305 H   0  0  0  0  0  0  0  0  0  0  0  0
    5.9720   -3.7161   -0.1162 H   0  0  0  0  0  0  0  0  0  0  0  0
    5.7821   -1.3555   -0.1254 H   0  0  0  0  0  0  0  0  0  0  0  0
    5.0500   -1.4139    4.0993 H   0  0  0  0  0  0  0  0  0  0  0  0
    5.2973   -3.8542    4.1041 H   0  0  0  0  0  0  0  0  0  0  0  0
    5.4435    0.9132    2.4718 H   0  0  0  0  0  0  0  0  0  0  0  0
    2.4734    1.7525    1.1036 H   0  0  0  0  0  0  0  0  0  0  0  0
    3.2572    3.5276   -0.3525 H   0  0  0  0  0  0  0  0  0  0  0  0
    4.7677    2.5826   -0.7951 H   0  0  0  0  0  0  0  0  0  0  0  0
    5.0639    4.5134    0.7659 H   0  0  0  0  0  0  0  0  0  0  0  0
    5.6392    2.9955    1.5401 H   0  0  0  0  0  0  0  0  0  0  0  0
    3.0483    4.5745    1.8206 H   0  0  0  0  0  0  0  0  0  0  0  0
    3.1430    2.9842    2.5924 H   0  0  0  0  0  0  0  0  0  0  0  0
    5.4079    4.7166    3.4271 H   0  0  0  0  0  0  0  0  0  0  0  0
    3.5501    6.3390    6.0244 H   0  0  0  0  0  0  0  0  0  0  0  0
    4.9330    5.2110    6.1069 H   0  0  0  0  0  0  0  0  0  0  0  0
    3.1858    1.1119   -1.7482 H   0  0  0  0  0  0  0  0  0  0  0  0
    1.7057   -1.7736   -1.7421 H   0  0  0  0  0  0  0  0  0  0  0  0
   -0.3293   -1.8670   -0.7731 H   0  0  0  0  0  0  0  0  0  0  0  0
   -2.0966   -0.4900   -0.8163 H   0  0  0  0  0  0  0  0  0  0  0  0
   -0.8766    0.8003   -0.8627 H   0  0  0  0  0  0  0  0  0  0  0  0
   -1.7695    0.2505   -2.3773 H   0  0  0  0  0  0  0  0  0  0  0  0
   -1.6026   -2.6237   -2.5363 H   0  0  0  0  0  0  0  0  0  0  0  0
   -1.1812   -1.3030   -3.6542 H   0  0  0  0  0  0  0  0  0  0  0  0
    0.0353   -2.6317   -3.1899 H   0  0  0  0  0  0  0  0  0  0  0  0
    1.1470    0.7192   -3.4227 H   0  0  0  0  0  0  0  0  0  0  0  0
    3.4443    0.9790   -4.8341 H   0  0  0  0  0  0  0  0  0  0  0  0
    2.0320    0.1616   -5.6663 H   0  0  0  0  0  0  0  0  0  0  0  0
    4.8689   -1.0770   -5.4578 H   0  0  0  0  0  0  0  0  0  0  0  0
    4.2459   -0.0835   -6.7790 H   0  0  0  0  0  0  0  0  0  0  0  0
    2.5830   -1.7212   -7.4334 H   0  0  0  0  0  0  0  0  0  0  0  0
    4.1932   -2.4333   -7.3174 H   0  0  0  0  0  0  0  0  0  0  0  0
    3.5305   -3.6765   -5.2157 H   0  0  0  0  0  0  0  0  0  0  0  0
    1.8967   -2.9419   -5.3137 H   0  0  0  0  0  0  0  0  0  0  0  0
    2.0874   -5.1706   -6.3750 H   0  0  0  0  0  0  0  0  0  0  0  0
    3.4217   -4.5387   -7.3836 H   0  0  0  0  0  0  0  0  0  0  0  0
   -1.5090   -3.2003   -9.2346 H   0  0  0  0  0  0  0  0  0  0  0  0
    0.3964   -2.5925  -10.7895 H   0  0  0  0  0  0  0  0  0  0  0  0
  1  2  1  0
  2  3  1  0
  3  4  1  0
  3  5  1  0
  5  6  1  0
  6  7  1  0
  7  8  1  0
  8  9  2  0
  8 10  1  0
 10 11  1  0
 11 12  1  0
 12 13  1  0
 13 14  1  0
 14 15  1  0
 15 16  1  0
 16 17  1  0
 16 18  1  0
 18 19  2  0
 18 20  1  0
 20 21  1  0
 21 22  1  0
 21 23  1  0
 23 24  1  0
 24 25  2  0
 25 26  1  0
 26 27  2  0
 27 28  1  0
 28 29  2  0
 23 30  1  0
 15 31  1  0
 31 32  1  0
  6 33  1  0
 33 34  1  0
  5 35  1  0
 35 36  1  0
 35 37  1  0
 37 38  2  0
 37 39  1  0
 39 40  1  0
 40 41  1  0
 40 42  1  0
 39 43  1  0
 43 44  1  0
 44 45  2  0
 44 46  1  0
 46 47  1  0
 47 48  1  0
 47 49  1  0
 46 50  1  0
 50 51  1  0
 50 52  1  0
 52 53  2  0
 52 54  1  0
 54 55  1  0
 55 56  1  0
 56 57  1  0
 57 58  2  0
 58 59  1  0
 59 60  2  0
 60 61  1  0
 59 62  1  0
 62 63  1  0
 63 64  2  0
 63 65  1  0
 65 66  1  0
 66 67  1  0
 67 68  1  0
 68 69  1  0
 69 70  1  0
 70 71  2  0
 70 72  1  0
 65 73  1  0
 73 74  1  0
 74 75  2  0
 74 76  1  0
 76 77  1  0
 77 78  1  0
 77 79  1  0
 76 80  1  0
 80 81  1  0
 81 82  2  0
 81 83  1  0
 83 84  1  0
 84 85  1  0
 85 86  1  0
 86 87  1  0
 87 88  1  0
 88 89  1  0
 89 90  2  0
 89 91  1  0
 91 92  2  0
 92 93  1  0
 93 94  2  0
 14 10  1  0
 29 24  1  0
 61 56  2  0
 93 88  1  0
  1 95  1  0
  1 96  1  0
  1 97  1  0
  2 98  1  0
  2 99  1  0
  3100  1  1
  4101  1  0
  4102  1  0
  4103  1  0
  5104  1  6
  6105  1  1
  7106  1  0
  7107  1  0
 11108  1  0
 11109  1  0
 12110  1  0
 12111  1  0
 13112  1  0
 13113  1  0
 14114  1  1
 15115  1  6
 16116  1  1
 17117  1  0
 17118  1  0
 17119  1  0
 20120  1  0
 21121  1  6
 22122  1  0
 22123  1  0
 22124  1  0
 23125  1  6
 25126  1  0
 26127  1  0
 27128  1  0
 28129  1  0
 29130  1  0
 30131  1  0
 32132  1  0
 32133  1  0
 32134  1  0
 34135  1  0
 34136  1  0
 34137  1  0
 36138  1  0
 36139  1  0
 36140  1  0
 39141  1  6
 40142  1  0
 41143  1  0
 41144  1  0
 41145  1  0
 42146  1  0
 42147  1  0
 42148  1  0
 43149  1  0
 46150  1  1
 47151  1  0
 48152  1  0
 48153  1  0
 48154  1  0
 49155  1  0
 49156  1  0
 49157  1  0
 51158  1  0
 51159  1  0
 51160  1  0
 55161  1  0
 55162  1  0
 57163  1  0
 58164  1  0
 60165  1  0
 61166  1  0
 62167  1  0
 65168  1  1
 66169  1  0
 66170  1  0
 67171  1  0
 67172  1  0
 68173  1  0
 68174  1  0
 69175  1  0
 72176  1  0
 72177  1  0
 73178  1  0
 76179  1  1
 77180  1  0
 78181  1  0
 78182  1  0
 78183  1  0
 79184  1  0
 79185  1  0
 79186  1  0
 80187  1  0
 83188  1  0
 83189  1  0
 84190  1  0
 84191  1  0
 85192  1  0
 85193  1  0
 86194  1  0
 86195  1  0
 87196  1  0
 87197  1  0
 91198  1  0
 92199  1  0
M  END
$$$$

     RDKit          3D

199202  0  0  0  0  0  0  0  0999 V2000
    2.0834    5.9318    3.3976 C   0  0  0  0  0  0  0  0  0  0  0  0
    2.2248    6.1468    1.9006 C   0  0  0  0  0  0  0  0  0  0  0  0
    3.6378    6.1696    1.4637 C   0  0  2  0  0  0  0  0  0  0  0  0
    4.4453    7.2719    2.1169 C   0  0  0  0  0  0  0  0  0  0  0  0
    3.8978    6.0210   -0.0217 C   0  0  1  0  0  0  0  0  0  0  0  0
    3.4168    4.7129   -0.5244 C   0  0  1  0  0  0  0  0  0  0  0  0
    3.8026    4.5253   -1.9547 C   0  0  0  0  0  0  0  0  0  0  0  0
    3.3533    3.3479   -2.6779 C   0  0  0  0  0  0  0  0  0  0  0  0
    2.6226    2.4255   -2.2454 O   0  0  0  0  0  0  0  0  0  0  0  0
    3.8118    3.2629   -4.0697 N   0  0  0  0  0  0  0  0  0  0  0  0
    4.7592    4.1883   -4.6213 C   0  0  0  0  0  0  0  0  0  0  0  0
    4.3901    4.2369   -6.0696 C   0  0  0  0  0  0  0  0  0  0  0  0
    4.0092    2.7640   -6.3141 C   0  0  0  0  0  0  0  0  0  0  0  0
    3.2917    2.3447   -5.0382 C   0  0  1  0  0  0  0  0  0  0  0  0
    3.5182    0.8633   -4.7443 C   0  0  1  0  0  0  0  0  0  0  0  0
    2.4908    0.0767   -5.4954 C   0  0  1  0  0  0  0  0  0  0  0  0
    2.5735    0.2564   -7.0080 C   0  0  0  0  0  0  0  0  0  0  0  0
    2.3420   -1.3378   -5.1803 C   0  0  0  0  0  0  0  0  0  0  0  0
    2.0361   -2.1227   -6.1520 O   0  0  0  0  0  0  0  0  0  0  0  0
    2.5080   -1.8842   -3.8971 N   0  0  0  0  0  0  0  0  0  0  0  0
    2.3527   -3.2432   -3.4812 C   0  0  2  0  0  0  0  0  0  0  0  0
    2.3524   -3.4472   -2.0140 C   0  0  0  0  0  0  0  0  0  0  0  0
    3.3655   -4.2143   -4.1057 C   0  0  1  0  0  0  0  0  0  0  0  0
    3.1006   -5.5590   -3.5353 C   0  0  0  0  0  0  0  0  0  0  0  0
    1.9451   -6.2318   -3.8844 C   0  0  0  0  0  0  0  0  0  0  0  0
    1.6439   -7.5037   -3.3727 C   0  0  0  0  0  0  0  0  0  0  0  0
    2.5740   -8.0701   -2.4799 C   0  0  0  0  0  0  0  0  0  0  0  0
    3.7078   -7.3922   -2.1468 C   0  0  0  0  0  0  0  0  0  0  0  0
    4.0112   -6.1425   -2.6462 C   0  0  0  0  0  0  0  0  0  0  0  0
    3.2471   -4.2852   -5.4882 O   0  0  0  0  0  0  0  0  0  0  0  0
    4.7934    0.4952   -4.7952 O   0  0  0  0  0  0  0  0  0  0  0  0
    5.4620    0.1308   -3.6503 C   0  0  0  0  0  0  0  0  0  0  0  0
    4.1399    3.7451    0.2163 O   0  0  0  0  0  0  0  0  0  0  0  0
    3.3990    2.9002    0.9770 C   0  0  0  0  0  0  0  0  0  0  0  0
    3.4067    7.1701   -0.7463 N   0  0  0  0  0  0  0  0  0  0  0  0
    4.5528    8.0798   -1.1649 C   0  0  0  0  0  0  0  0  0  0  0  0
    2.1592    7.5980   -1.1590 C   0  0  0  0  0  0  0  0  0  0  0  0
    2.2855    8.8876   -1.6441 O   0  0  0  0  0  0  0  0  0  0  0  0
    0.8029    7.2190   -1.2837 C   0  0  1  0  0  0  0  0  0  0  0  0
    0.1934    7.7920   -2.6342 C   0  0  0  0  0  0  0  0  0  0  0  0
    0.9262    7.2681   -3.8127 C   0  0  0  0  0  0  0  0  0  0  0  0
    0.0944    9.2568   -2.5343 C   0  0  0  0  0  0  0  0  0  0  0  0
    0.2366    5.9336   -1.1337 N   0  0  0  0  0  0  0  0  0  0  0  0
   -1.0887    5.7068   -0.5472 C   0  0  0  0  0  0  0  0  0  0  0  0
   -1.6508    6.7707   -0.1806 O   0  0  0  0  0  0  0  0  0  0  0  0
   -1.6160    4.3716   -0.4578 C   0  0  1  0  0  0  0  0  0  0  0  0
   -1.7515    3.7024    0.8933 C   0  0  0  0  0  0  0  0  0  0  0  0
   -0.4393    3.5340    1.5926 C   0  0  0  0  0  0  0  0  0  0  0  0
   -2.6557    4.5444    1.7617 C   0  0  0  0  0  0  0  0  0  0  0  0
   -2.9712    4.2906   -1.0119 N   0  0  0  0  0  0  0  0  0  0  0  0
   -4.0853    5.1100   -0.6456 C   0  0  0  0  0  0  0  0  0  0  0  0
   -3.0889    3.2548   -2.0497 C   0  0  0  0  0  0  0  0  0  0  0  0
   -4.2659    3.0444   -2.4094 O   0  0  0  0  0  0  0  0  0  0  0  0
   -1.9582    2.6398   -2.5044 O   0  0  0  0  0  0  0  0  0  0  0  0
   -2.0909    1.5327   -3.4490 C   0  0  0  0  0  0  0  0  0  0  0  0
   -2.7842    0.4449   -2.6208 C   0  0  0  0  0  0  0  0  0  0  0  0
   -4.0894    0.1169   -2.7208 C   0  0  0  0  0  0  0  0  0  0  0  0
   -4.5801   -0.7950   -1.7639 C   0  0  0  0  0  0  0  0  0  0  0  0
   -3.8109   -1.3235   -0.7859 C   0  0  0  0  0  0  0  0  0  0  0  0
   -2.4317   -0.9371   -0.7364 C   0  0  0  0  0  0  0  0  0  0  0  0
   -1.9210   -0.0599   -1.6493 C   0  0  0  0  0  0  0  0  0  0  0  0
   -4.1489   -2.1642    0.2890 N   0  0  0  0  0  0  0  0  0  0  0  0
   -4.0998   -3.5489    0.3877 C   0  0  0  0  0  0  0  0  0  0  0  0
   -3.7563   -4.2806   -0.6017 O   0  0  0  0  0  0  0  0  0  0  0  0
   -4.4221   -4.1917    1.6596 C   0  0  1  0  0  0  0  0  0  0  0  0
   -5.7644   -3.9193    2.2011 C   0  0  0  0  0  0  0  0  0  0  0  0
   -6.9703   -4.2799    1.4245 C   0  0  0  0  0  0  0  0  0  0  0  0
   -7.1670   -3.5093    0.1464 C   0  0  0  0  0  0  0  0  0  0  0  0
   -7.3270   -2.0744    0.4827 N   0  0  0  0  0  0  0  0  0  0  0  0
   -8.4088   -1.6142    1.2774 C   0  0  0  0  0  0  0  0  0  0  0  0
   -9.3058   -2.3450    1.7532 O   0  0  0  0  0  0  0  0  0  0  0  0
   -8.4871   -0.2194    1.5597 N   0  0  0  0  0  0  0  0  0  0  0  0
   -4.0670   -5.6139    1.7248 N   0  0  0  0  0  0  0  0  0  0  0  0
   -2.8692   -5.9360    2.3602 C   0  0  0  0  0  0  0  0  0  0  0  0
   -2.1256   -4.9885    2.8357 O   0  0  0  0  0  0  0  0  0  0  0  0
   -2.2833   -7.2938    2.5943 C   0  0  1  0  0  0  0  0  0  0  0  0
   -1.7998   -7.8869    1.3258 C   0  0  0  0  0  0  0  0  0  0  0  0
   -2.8937   -8.0599    0.3218 C   0  0  0  0  0  0  0  0  0  0  0  0
   -0.7564   -6.9737    0.6469 C   0  0  0  0  0  0  0  0  0  0  0  0
   -1.0602   -6.9707    3.3970 N   0  0  0  0  0  0  0  0  0  0  0  0
   -1.2974   -6.7436    4.7813 C   0  0  0  0  0  0  0  0  0  0  0  0
   -2.4836   -6.8266    5.2108 O   0  0  0  0  0  0  0  0  0  0  0  0
   -0.1623   -6.4067    5.7158 C   0  0  0  0  0  0  0  0  0  0  0  0
   -0.7279   -5.8375    7.0132 C   0  0  0  0  0  0  0  0  0  0  0  0
   -1.5146   -4.5669    6.7244 C   0  0  0  0  0  0  0  0  0  0  0  0
   -0.6826   -3.4998    6.0972 C   0  0  0  0  0  0  0  0  0  0  0  0
   -1.5289   -2.2885    5.8034 C   0  0  0  0  0  0  0  0  0  0  0  0
   -2.1458   -1.6961    6.9661 N   0  0  0  0  0  0  0  0  0  0  0  0
   -3.4256   -2.0304    7.5352 C   0  0  0  0  0  0  0  0  0  0  0  0
   -4.2591   -2.8760    7.1582 O   0  0  0  0  0  0  0  0  0  0  0  0
   -3.6129   -1.1501    8.7198 C   0  0  0  0  0  0  0  0  0  0  0  0
   -2.5384   -0.3701    8.8326 C   0  0  0  0  0  0  0  0  0  0  0  0
   -1.5875   -0.6624    7.7694 C   0  0  0  0  0  0  0  0  0  0  0  0
   -0.4906   -0.0567    7.6582 O   0  0  0  0  0  0  0  0  0  0  0  0
    2.5500    4.9816    3.7246 H   0  0  0  0  0  0  0  0  0  0  0  0
    1.0011    5.8597    3.6369 H   0  0  0  0  0  0  0  0  0  0  0  0
    2.4532    6.8020    3.9754 H   0  0  0  0  0  0  0  0  0  0  0  0
    1.6754    7.1083    1.6735 H   0  0  0  0  0  0  0  0  0  0  0  0
    1.6060    5.3855    1.4168 H   0  0  0  0  0  0  0  0  0  0  0  0
    4.1239    5.2539    1.9099 H   0  0  0  0  0  0  0  0  0  0  0  0
    5.5042    7.1193    1.8318 H   0  0  0  0  0  0  0  0  0  0  0  0
    4.1536    8.2833    1.8635 H   0  0  0  0  0  0  0  0  0  0  0  0
    4.4304    7.0602    3.2181 H   0  0  0  0  0  0  0  0  0  0  0  0
    5.0110    6.0016   -0.0339 H   0  0  0  0  0  0  0  0  0  0  0  0
    2.3970    4.5275   -0.2402 H   0  0  0  0  0  0  0  0  0  0  0  0
    4.9270    4.6098   -1.9912 H   0  0  0  0  0  0  0  0  0  0  0  0
    3.4519    5.3909   -2.5904 H   0  0  0  0  0  0  0  0  0  0  0  0
    4.7654    5.1720   -4.1093 H   0  0  0  0  0  0  0  0  0  0  0  0
    5.7714    3.6781   -4.5892 H   0  0  0  0  0  0  0  0  0  0  0  0
    3.4692    4.8486   -6.2064 H   0  0  0  0  0  0  0  0  0  0  0  0
    5.1913    4.5681   -6.7352 H   0  0  0  0  0  0  0  0  0  0  0  0
    3.2933    2.7720   -7.1395 H   0  0  0  0  0  0  0  0  0  0  0  0
    4.9510    2.2180   -6.4771 H   0  0  0  0  0  0  0  0  0  0  0  0
    2.1926    2.4587   -5.1978 H   0  0  0  0  0  0  0  0  0  0  0  0
    3.2014    0.7260   -3.6339 H   0  0  0  0  0  0  0  0  0  0  0  0
    1.4683    0.5418   -5.2572 H   0  0  0  0  0  0  0  0  0  0  0  0
    1.8305    0.9521   -7.4137 H   0  0  0  0  0  0  0  0  0  0  0  0
    3.6133    0.4388   -7.3315 H   0  0  0  0  0  0  0  0  0  0  0  0
    2.3090   -0.7424   -7.4484 H   0  0  0  0  0  0  0  0  0  0  0  0
    2.7698   -1.1919   -3.1306 H   0  0  0  0  0  0  0  0  0  0  0  0
    1.3929   -3.6136   -3.9596 H   0  0  0  0  0  0  0  0  0  0  0  0
    1.4929   -4.1004   -1.6976 H   0  0  0  0  0  0  0  0  0  0  0  0
    2.2160   -2.5184   -1.4161 H   0  0  0  0  0  0  0  0  0  0  0  0
    3.2864   -3.9937   -1.6705 H   0  0  0  0  0  0  0  0  0  0  0  0
    4.4062   -3.9455   -3.8834 H   0  0  0  0  0  0  0  0  0  0  0  0
    1.2018   -5.8343   -4.5707 H   0  0  0  0  0  0  0  0  0  0  0  0
    0.7431   -8.0326   -3.6452 H   0  0  0  0  0  0  0  0  0  0  0  0
    2.3379   -9.0640   -2.0764 H   0  0  0  0  0  0  0  0  0  0  0  0
    4.4070   -7.8631   -1.4477 H   0  0  0  0  0  0  0  0  0  0  0  0
    4.9187   -5.6125   -2.3801 H   0  0  0  0  0  0  0  0  0  0  0  0
    3.0620   -5.2335   -5.7794 H   0  0  0  0  0  0  0  0  0  0  0  0
    6.5351   -0.1599   -3.9039 H   0  0  0  0  0  0  0  0  0  0  0  0
    5.0043   -0.6425   -3.0316 H   0  0  0  0  0  0  0  0  0  0  0  0
    5.5696    1.0358   -2.9764 H   0  0  0  0  0  0  0  0  0  0  0  0
    2.7532    3.3482    1.7518 H   0  0  0  0  0  0  0  0  0  0  0  0
    4.1157    2.2566    1.5904 H   0  0  0  0  0  0  0  0  0  0  0  0
    2.7041    2.2100    0.4191 H   0  0  0  0  0  0  0  0  0  0  0  0
    5.4711    7.4816   -1.3054 H   0  0  0  0  0  0  0  0  0  0  0  0
    4.3229    8.5230   -2.1483 H   0  0  0  0  0  0  0  0  0  0  0  0
    4.7574    8.8083   -0.3699 H   0  0  0  0  0  0  0  0  0  0  0  0
    0.1787    7.8845   -0.5884 H   0  0  0  0  0  0  0  0  0  0  0  0
   -0.8258    7.3550   -2.6425 H   0  0  0  0  0  0  0  0  0  0  0  0
    0.9587    6.1416   -3.7882 H   0  0  0  0  0  0  0  0  0  0  0  0
    1.9043    7.7001   -4.0063 H   0  0  0  0  0  0  0  0  0  0  0  0
    0.2949    7.4821   -4.7049 H   0  0  0  0  0  0  0  0  0  0  0  0
    0.1132    9.6241   -1.5025 H   0  0  0  0  0  0  0  0  0  0  0  0
    0.8446    9.7765   -3.2109 H   0  0  0  0  0  0  0  0  0  0  0  0
   -0.8814    9.6658   -2.9458 H   0  0  0  0  0  0  0  0  0  0  0  0
    0.6925    5.0598   -1.4618 H   0  0  0  0  0  0  0  0  0  0  0  0
   -1.0039    3.6254   -1.0926 H   0  0  0  0  0  0  0  0  0  0  0  0
   -2.1926    2.6651    0.7567 H   0  0  0  0  0  0  0  0  0  0  0  0
   -0.4258    2.5305    2.1423 H   0  0  0  0  0  0  0  0  0  0  0  0
   -0.2456    4.2768    2.3662 H   0  0  0  0  0  0  0  0  0  0  0  0
    0.4219    3.4764    0.9099 H   0  0  0  0  0  0  0  0  0  0  0  0
   -3.6028    4.0014    2.0143 H   0  0  0  0  0  0  0  0  0  0  0  0
   -2.1203    4.5897    2.7695 H   0  0  0  0  0  0  0  0  0  0  0  0
   -2.7650    5.5792    1.4788 H   0  0  0  0  0  0  0  0  0  0  0  0
   -3.8668    6.1743   -0.4468 H   0  0  0  0  0  0  0  0  0  0  0  0
   -4.7802    4.6407    0.0944 H   0  0  0  0  0  0  0  0  0  0  0  0
   -4.7652    5.1777   -1.5678 H   0  0  0  0  0  0  0  0  0  0  0  0
   -1.1274    1.2301   -3.8067 H   0  0  0  0  0  0  0  0  0  0  0  0
   -2.8343    1.8677   -4.1786 H   0  0  0  0  0  0  0  0  0  0  0  0
   -4.6893    0.5374   -3.4881 H   0  0  0  0  0  0  0  0  0  0  0  0
   -5.5976   -1.0751   -1.8401 H   0  0  0  0  0  0  0  0  0  0  0  0
   -1.7818   -1.3357    0.0242 H   0  0  0  0  0  0  0  0  0  0  0  0
   -0.8784    0.2138   -1.5822 H   0  0  0  0  0  0  0  0  0  0  0  0
   -4.5004   -1.6426    1.1661 H   0  0  0  0  0  0  0  0  0  0  0  0
   -3.7165   -3.7068    2.4312 H   0  0  0  0  0  0  0  0  0  0  0  0
   -5.8147   -2.7878    2.3580 H   0  0  0  0  0  0  0  0  0  0  0  0
   -5.8506   -4.2729    3.2875 H   0  0  0  0  0  0  0  0  0  0  0  0
   -7.0757   -5.3845    1.2552 H   0  0  0  0  0  0  0  0  0  0  0  0
   -7.8517   -4.0503    2.0961 H   0  0  0  0  0  0  0  0  0  0  0  0
   -6.4240   -3.6745   -0.6246 H   0  0  0  0  0  0  0  0  0  0  0  0
   -8.1607   -3.7776   -0.3297 H   0  0  0  0  0  0  0  0  0  0  0  0
   -6.6536   -1.3745    0.1617 H   0  0  0  0  0  0  0  0  0  0  0  0
   -7.8375    0.1668    2.2553 H   0  0  0  0  0  0  0  0  0  0  0  0
   -9.1809    0.3742    1.0652 H   0  0  0  0  0  0  0  0  0  0  0  0
   -4.6776   -6.3579    1.3361 H   0  0  0  0  0  0  0  0  0  0  0  0
   -2.9803   -7.8814    3.1878 H   0  0  0  0  0  0  0  0  0  0  0  0
   -1.2250   -8.8373    1.4925 H   0  0  0  0  0  0  0  0  0  0  0  0
   -2.5025   -8.7521   -0.4874 H   0  0  0  0  0  0  0  0  0  0  0  0
   -3.1296   -7.1365   -0.2307 H   0  0  0  0  0  0  0  0  0  0  0  0
   -3.8215   -8.4714    0.7411 H   0  0  0  0  0  0  0  0  0  0  0  0
   -0.8466   -7.1005   -0.4647 H   0  0  0  0  0  0  0  0  0  0  0  0
   -0.9303   -5.9159    0.8436 H   0  0  0  0  0  0  0  0  0  0  0  0
    0.2730   -7.2503    0.9158 H   0  0  0  0  0  0  0  0  0  0  0  0
   -0.1220   -6.9327    2.9491 H   0  0  0  0  0  0  0  0  0  0  0  0
    0.5695   -5.7628    5.2436 H   0  0  0  0  0  0  0  0  0  0  0  0
    0.3198   -7.3651    5.9738 H   0  0  0  0  0  0  0  0  0  0  0  0
    0.0934   -5.6119    7.6858 H   0  0  0  0  0  0  0  0  0  0  0  0
   -1.4512   -6.5695    7.4202 H   0  0  0  0  0  0  0  0  0  0  0  0
   -2.4448   -4.7360    6.1950 H   0  0  0  0  0  0  0  0  0  0  0  0
   -1.8155   -4.1704    7.7445 H   0  0  0  0  0  0  0  0  0  0  0  0
   -0.2642   -3.8229    5.1030 H   0  0  0  0  0  0  0  0  0  0  0  0
    0.1513   -3.1889    6.7810 H   0  0  0  0  0  0  0  0  0  0  0  0
   -2.2665   -2.5241    4.9957 H   0  0  0  0  0  0  0  0  0  0  0  0
   -0.8772   -1.4934    5.3037 H   0  0  0  0  0  0  0  0  0  0  0  0
   -4.4915   -1.1739    9.3535 H   0  0  0  0  0  0  0  0  0  0  0  0
   -2.4145    0.3829    9.6249 H   0  0  0  0  0  0  0  0  0  0  0  0
  1  2  1  0
  2  3  1  0
  3  4  1  0
  3  5  1  0
  5  6  1  0
  6  7  1  0
  7  8  1  0
  8  9  2  0
  8 10  1  0
 10 11  1  0
 11 12  1  0
 12 13  1  0
 13 14  1  0
 14 15  1  0
 15 16  1  0
 16 17  1  0
 16 18  1  0
 18 19  2  0
 18 20  1  0
 20 21  1  0
 21 22  1  0
 21 23  1  0
 23 24  1  0
 24 25  2  0
 25 26  1  0
 26 27  2  0
 27 28  1  0
 28 29  2  0
 23 30  1  0
 15 31  1  0
 31 32  1  0
  6 33  1  0
 33 34  1  0
  5 35  1  0
 35 36  1  0
 35 37  1  0
 37 38  2  0
 37 39  1  0
 39 40  1  0
 40 41  1  0
 40 42  1  0
 39 43  1  0
 43 44  1  0
 44 45  2  0
 44 46  1  0
 46 47  1  0
 47 48  1  0
 47 49  1  0
 46 50  1  0
 50 51  1  0
 50 52  1  0
 52 53  2  0
 52 54  1  0
 54 55  1  0
 55 56  1  0
 56 57  1  0
 57 58  2  0
 58 59  1  0
 59 60  2  0
 60 61  1  0
 59 62  1  0
 62 63  1  0
 63 64  2  0
 63 65  1  0
 65 66  1  0
 66 67  1  0
 67 68  1  0
 68 69  1  0
 69 70  1  0
 70 71  2  0
 70 72  1  0
 65 73  1  0
 73 74  1  0
 74 75  2  0
 74 76  1  0
 76 77  1  0
 77 78  1  0
 77 79  1  0
 76 80  1  0
 80 81  1  0
 81 82  2  0
 81 83  1  0
 83 84  1  0
 84 85  1  0
 85 86  1  0
 86 87  1  0
 87 88  1  0
 88 89  1  0
 89 90  2  0
 89 91  1  0
 91 92  2  0
 92 93  1  0
 93 94  2  0
 14 10  1  0
 29 24  1  0
 61 56  2  0
 93 88  1  0
  1 95  1  0
  1 96  1  0
  1 97  1  0
  2 98  1  0
  2 99  1  0
  3100  1  1
  4101  1  0
  4102  1  0
  4103  1  0
  5104  1  1
  6105  1  6
  7106  1  0
  7107  1  0
 11108  1  0
 11109  1  0
 12110  1  0
 12111  1  0
 13112  1  0
 13113  1  0
 14114  1  6
 15115  1  1
 16116  1  1
 17117  1  0
 17118  1  0
 17119  1  0
 20120  1  0
 21121  1  6
 22122  1  0
 22123  1  0
 22124  1  0
 23125  1  6
 25126  1  0
 26127  1  0
 27128  1  0
 28129  1  0
 29130  1  0
 30131  1  0
 32132  1  0
 32133  1  0
 32134  1  0
 34135  1  0
 34136  1  0
 34137  1  0
 36138  1  0
 36139  1  0
 36140  1  0
 39141  1  1
 40142  1  0
 41143  1  0
 41144  1  0
 41145  1  0
 42146  1  0
 42147  1  0
 42148  1  0
 43149  1  0
 46150  1  6
 47151  1  0
 48152  1  0
 48153  1  0
 48154  1  0
 49155  1  0
 49156  1  0
 49157  1  0
 51158  1  0
 51159  1  0
 51160  1  0
 55161  1  0
 55162  1  0
 57163  1  0
 58164  1  0
 60165  1  0
 61166  1  0
 62167  1  0
 65168  1  1
 66169  1  0
 66170  1  0
 67171  1  0
 67172  1  0
 68173  1  0
 68174  1  0
 69175  1  0
 72176  1  0
 72177  1  0
 73178  1  0
 76179  1  1
 77180  1  0
 78181  1  0
 78182  1  0
 78183  1  0
 79184  1  0
 79185  1  0
 79186  1  0
 80187  1  0
 83188  1  0
 83189  1  0
 84190  1  0
 84191  1  0
 85192  1  0
 85193  1  0
 86194  1  0
 86195  1  0
 87196  1  0
 87197  1  0
 91198  1  0
 92199  1  0
M  END
$$$$

     RDKit          3D

199202  0  0  0  0  0  0  0  0999 V2000
    1.6748   -2.9227    7.0973 C   0  0  0  0  0  0  0  0  0  0  0  0
    2.1416   -1.6158    6.4819 C   0  0  0  0  0  0  0  0  0  0  0  0
    2.4666   -1.8633    4.9942 C   0  0  2  0  0  0  0  0  0  0  0  0
    3.5725   -2.9287    5.0585 C   0  0  0  0  0  0  0  0  0  0  0  0
    2.9161   -0.5912    4.3464 C   0  0  1  0  0  0  0  0  0  0  0  0
    3.2039   -0.7444    2.8945 C   0  0  1  0  0  0  0  0  0  0  0  0
    4.0488    0.3900    2.3621 C   0  0  0  0  0  0  0  0  0  0  0  0
    4.4414    0.2452    0.9682 C   0  0  0  0  0  0  0  0  0  0  0  0
    4.1733   -0.7623    0.2238 O   0  0  0  0  0  0  0  0  0  0  0  0
    5.2098    1.2367    0.2348 N   0  0  0  0  0  0  0  0  0  0  0  0
    5.6528    0.8927   -1.1347 C   0  0  0  0  0  0  0  0  0  0  0  0
    6.7836    1.8696   -1.4024 C   0  0  0  0  0  0  0  0  0  0  0  0
    7.1217    2.4150   -0.0082 C   0  0  0  0  0  0  0  0  0  0  0  0
    5.6877    2.5075    0.5628 C   0  0  1  0  0  0  0  0  0  0  0  0
    5.0798    3.7709    0.0867 C   0  0  1  0  0  0  0  0  0  0  0  0
    3.6827    4.0833    0.5440 C   0  0  1  0  0  0  0  0  0  0  0  0
    3.2813    5.5044    0.0603 C   0  0  0  0  0  0  0  0  0  0  0  0
    2.6903    3.1750   -0.1177 C   0  0  0  0  0  0  0  0  0  0  0  0
    2.9095    2.3918   -1.0323 O   0  0  0  0  0  0  0  0  0  0  0  0
    1.3658    3.2582    0.3941 N   0  0  0  0  0  0  0  0  0  0  0  0
    0.2256    2.4957   -0.0976 C   0  0  2  0  0  0  0  0  0  0  0  0
   -0.9977    3.2209    0.3171 C   0  0  0  0  0  0  0  0  0  0  0  0
    0.2276    1.1120    0.4440 C   0  0  1  0  0  0  0  0  0  0  0  0
   -0.8567    0.2153    0.1520 C   0  0  0  0  0  0  0  0  0  0  0  0
   -2.0594    0.4690   -0.4375 C   0  0  0  0  0  0  0  0  0  0  0  0
   -3.0419   -0.4891   -0.6348 C   0  0  0  0  0  0  0  0  0  0  0  0
   -2.8126   -1.7740   -0.2244 C   0  0  0  0  0  0  0  0  0  0  0  0
   -1.6285   -2.0783    0.3660 C   0  0  0  0  0  0  0  0  0  0  0  0
   -0.6636   -1.1327    0.5607 C   0  0  0  0  0  0  0  0  0  0  0  0
    1.4103    0.5067   -0.0023 O   0  0  0  0  0  0  0  0  0  0  0  0
    5.8375    4.8963    0.5331 O   0  0  0  0  0  0  0  0  0  0  0  0
    6.2541    5.7112   -0.4813 C   0  0  0  0  0  0  0  0  0  0  0  0
    3.8366   -1.9366    2.6437 O   0  0  0  0  0  0  0  0  0  0  0  0
    3.1124   -2.9084    2.0178 C   0  0  0  0  0  0  0  0  0  0  0  0
    2.1875    0.5733    4.8017 N   0  0  0  0  0  0  0  0  0  0  0  0
    2.9247    1.4853    5.6744 C   0  0  0  0  0  0  0  0  0  0  0  0
    0.8492    0.6959    4.4357 C   0  0  0  0  0  0  0  0  0  0  0  0
    0.4124   -0.3380    3.7475 O   0  0  0  0  0  0  0  0  0  0  0  0
   -0.1626    1.7113    4.6520 C   0  0  1  0  0  0  0  0  0  0  0  0
    0.0220    3.0672    4.0498 C   0  0  0  0  0  0  0  0  0  0  0  0
    1.2434    3.7792    4.5129 C   0  0  0  0  0  0  0  0  0  0  0  0
   -1.1502    3.9495    4.5036 C   0  0  0  0  0  0  0  0  0  0  0  0
   -1.4160    1.1323    4.1157 N   0  0  0  0  0  0  0  0  0  0  0  0
   -2.6699    1.2625    4.6933 C   0  0  0  0  0  0  0  0  0  0  0  0
   -2.9463    1.8809    5.7585 O   0  0  0  0  0  0  0  0  0  0  0  0
   -3.8662    0.6254    4.0193 C   0  0  1  0  0  0  0  0  0  0  0  0
   -3.9557   -0.7780    4.6199 C   0  0  0  0  0  0  0  0  0  0  0  0
   -2.7052   -1.5389    4.3373 C   0  0  0  0  0  0  0  0  0  0  0  0
   -5.1271   -1.5417    4.0778 C   0  0  0  0  0  0  0  0  0  0  0  0
   -5.0565    1.3862    4.3354 N   0  0  0  0  0  0  0  0  0  0  0  0
   -5.5483    1.6102    5.6753 C   0  0  0  0  0  0  0  0  0  0  0  0
   -5.7878    1.9545    3.2587 C   0  0  0  0  0  0  0  0  0  0  0  0
   -6.8267    2.6770    3.4431 O   0  0  0  0  0  0  0  0  0  0  0  0
   -5.4363    1.7760    1.9181 O   0  0  0  0  0  0  0  0  0  0  0  0
   -6.2622    2.4385    0.9572 C   0  0  0  0  0  0  0  0  0  0  0  0
   -5.8489    2.1725   -0.4379 C   0  0  0  0  0  0  0  0  0  0  0  0
   -4.8114    2.8477   -1.0428 C   0  0  0  0  0  0  0  0  0  0  0  0
   -4.4221    2.6402   -2.3469 C   0  0  0  0  0  0  0  0  0  0  0  0
   -5.0822    1.7085   -3.1411 C   0  0  0  0  0  0  0  0  0  0  0  0
   -6.1253    1.0208   -2.5558 C   0  0  0  0  0  0  0  0  0  0  0  0
   -6.5118    1.2330   -1.2417 C   0  0  0  0  0  0  0  0  0  0  0  0
   -4.6616    1.4719   -4.4880 N   0  0  0  0  0  0  0  0  0  0  0  0
   -3.8393    0.3555   -4.7596 C   0  0  0  0  0  0  0  0  0  0  0  0
   -3.5349   -0.3787   -3.7739 O   0  0  0  0  0  0  0  0  0  0  0  0
   -3.3068   -0.0380   -6.0666 C   0  0  1  0  0  0  0  0  0  0  0  0
   -2.3357    1.0616   -6.4960 C   0  0  0  0  0  0  0  0  0  0  0  0
   -1.7287    0.8303   -7.8413 C   0  0  0  0  0  0  0  0  0  0  0  0
   -0.7429    1.9618   -8.1850 C   0  0  0  0  0  0  0  0  0  0  0  0
   -1.3717    3.2472   -8.2088 N   0  0  0  0  0  0  0  0  0  0  0  0
   -0.6661    4.4444   -8.5028 C   0  0  0  0  0  0  0  0  0  0  0  0
    0.5683    4.3449   -8.7494 O   0  0  0  0  0  0  0  0  0  0  0  0
   -1.3749    5.6655   -8.5034 N   0  0  0  0  0  0  0  0  0  0  0  0
   -2.6636   -1.3240   -6.0336 N   0  0  0  0  0  0  0  0  0  0  0  0
   -1.3142   -1.5857   -5.7782 C   0  0  0  0  0  0  0  0  0  0  0  0
   -0.4305   -0.7210   -5.5207 O   0  0  0  0  0  0  0  0  0  0  0  0
   -0.8501   -2.9998   -5.8028 C   0  0  1  0  0  0  0  0  0  0  0  0
   -1.2293   -3.7204   -7.0764 C   0  0  0  0  0  0  0  0  0  0  0  0
   -0.6997   -3.1482   -8.3286 C   0  0  0  0  0  0  0  0  0  0  0  0
   -0.7028   -5.1459   -6.9430 C   0  0  0  0  0  0  0  0  0  0  0  0
    0.5198   -3.1940   -5.4357 N   0  0  0  0  0  0  0  0  0  0  0  0
    0.8274   -4.0825   -4.3344 C   0  0  0  0  0  0  0  0  0  0  0  0
   -0.1505   -4.6219   -3.7925 O   0  0  0  0  0  0  0  0  0  0  0  0
    2.2335   -4.2733   -3.9511 C   0  0  0  0  0  0  0  0  0  0  0  0
    2.4601   -5.3090   -2.8763 C   0  0  0  0  0  0  0  0  0  0  0  0
    1.7656   -5.0466   -1.5869 C   0  0  0  0  0  0  0  0  0  0  0  0
    1.9738   -6.0552   -0.5108 C   0  0  0  0  0  0  0  0  0  0  0  0
    1.5546   -7.4470   -0.7847 C   0  0  0  0  0  0  0  0  0  0  0  0
    0.1824   -7.6771   -1.1013 N   0  0  0  0  0  0  0  0  0  0  0  0
   -0.8419   -7.9027   -0.1144 C   0  0  0  0  0  0  0  0  0  0  0  0
   -0.7076   -7.9111    1.1447 O   0  0  0  0  0  0  0  0  0  0  0  0
   -2.0944   -8.1259   -0.8224 C   0  0  0  0  0  0  0  0  0  0  0  0
   -1.9263   -8.0577   -2.1174 C   0  0  0  0  0  0  0  0  0  0  0  0
   -0.4992   -7.7752   -2.3429 C   0  0  0  0  0  0  0  0  0  0  0  0
   -0.0322   -7.6558   -3.4991 O   0  0  0  0  0  0  0  0  0  0  0  0
    0.8617   -2.6690    7.8044 H   0  0  0  0  0  0  0  0  0  0  0  0
    1.3509   -3.6533    6.3480 H   0  0  0  0  0  0  0  0  0  0  0  0
    2.4823   -3.3901    7.7122 H   0  0  0  0  0  0  0  0  0  0  0  0
    1.4080   -0.8318    6.6298 H   0  0  0  0  0  0  0  0  0  0  0  0
    3.0803   -1.3345    7.0040 H   0  0  0  0  0  0  0  0  0  0  0  0
    1.5414   -2.2045    4.5580 H   0  0  0  0  0  0  0  0  0  0  0  0
    4.5416   -2.5639    4.6773 H   0  0  0  0  0  0  0  0  0  0  0  0
    3.8137   -3.1774    6.1475 H   0  0  0  0  0  0  0  0  0  0  0  0
    3.2468   -3.9010    4.6577 H   0  0  0  0  0  0  0  0  0  0  0  0
    4.0018   -0.4777    4.7795 H   0  0  0  0  0  0  0  0  0  0  0  0
    2.2054   -0.8317    2.4033 H   0  0  0  0  0  0  0  0  0  0  0  0
    3.6168    1.3820    2.6106 H   0  0  0  0  0  0  0  0  0  0  0  0
    5.0127    0.3768    2.9623 H   0  0  0  0  0  0  0  0  0  0  0  0
    6.0611   -0.1598   -1.0656 H   0  0  0  0  0  0  0  0  0  0  0  0
    4.8650    0.8980   -1.8751 H   0  0  0  0  0  0  0  0  0  0  0  0
    7.6267    1.3150   -1.8461 H   0  0  0  0  0  0  0  0  0  0  0  0
    6.3907    2.6729   -2.0472 H   0  0  0  0  0  0  0  0  0  0  0  0
    7.6852    1.6281    0.5600 H   0  0  0  0  0  0  0  0  0  0  0  0
    7.6414    3.3367   -0.0925 H   0  0  0  0  0  0  0  0  0  0  0  0
    5.8575    2.5676    1.6989 H   0  0  0  0  0  0  0  0  0  0  0  0
    5.0903    3.8819   -1.0273 H   0  0  0  0  0  0  0  0  0  0  0  0
    3.6465    4.1090    1.6250 H   0  0  0  0  0  0  0  0  0  0  0  0
    3.8728    6.2013    0.6256 H   0  0  0  0  0  0  0  0  0  0  0  0
    2.2271    5.5916    0.4726 H   0  0  0  0  0  0  0  0  0  0  0  0
    3.1914    5.5801   -1.0070 H   0  0  0  0  0  0  0  0  0  0  0  0
    1.2194    3.9474    1.1867 H   0  0  0  0  0  0  0  0  0  0  0  0
    0.4121    2.3920   -1.1926 H   0  0  0  0  0  0  0  0  0  0  0  0
   -1.6249    2.6879    1.0593 H   0  0  0  0  0  0  0  0  0  0  0  0
   -0.6506    4.1368    0.9005 H   0  0  0  0  0  0  0  0  0  0  0  0
   -1.5074    3.6410   -0.5454 H   0  0  0  0  0  0  0  0  0  0  0  0
    0.2637    1.2019    1.5753 H   0  0  0  0  0  0  0  0  0  0  0  0
   -2.2784    1.4474   -0.7808 H   0  0  0  0  0  0  0  0  0  0  0  0
   -3.9824   -0.2661   -1.0934 H   0  0  0  0  0  0  0  0  0  0  0  0
   -3.5355   -2.5644   -0.3510 H   0  0  0  0  0  0  0  0  0  0  0  0
   -1.4447   -3.0992    0.6888 H   0  0  0  0  0  0  0  0  0  0  0  0
    0.2506   -1.4406    1.0327 H   0  0  0  0  0  0  0  0  0  0  0  0
    1.2757    0.0349   -0.8625 H   0  0  0  0  0  0  0  0  0  0  0  0
    6.8820    5.1631   -1.2049 H   0  0  0  0  0  0  0  0  0  0  0  0
    6.9446    6.5275   -0.0962 H   0  0  0  0  0  0  0  0  0  0  0  0
    5.4571    6.1766   -1.1003 H   0  0  0  0  0  0  0  0  0  0  0  0
    2.7239   -2.6021    1.0586 H   0  0  0  0  0  0  0  0  0  0  0  0
    2.2031   -3.2705    2.5898 H   0  0  0  0  0  0  0  0  0  0  0  0
    3.7132   -3.8747    1.9317 H   0  0  0  0  0  0  0  0  0  0  0  0
    3.6902    0.8717    6.2724 H   0  0  0  0  0  0  0  0  0  0  0  0
    2.3188    1.9325    6.4609 H   0  0  0  0  0  0  0  0  0  0  0  0
    3.5622    2.1501    5.0817 H   0  0  0  0  0  0  0  0  0  0  0  0
   -0.3549    1.8797    5.7197 H   0  0  0  0  0  0  0  0  0  0  0  0
    0.0827    3.0561    2.9538 H   0  0  0  0  0  0  0  0  0  0  0  0
    2.1438    3.5695    3.9039 H   0  0  0  0  0  0  0  0  0  0  0  0
    1.0395    4.8808    4.2042 H   0  0  0  0  0  0  0  0  0  0  0  0
    1.3837    3.8799    5.5870 H   0  0  0  0  0  0  0  0  0  0  0  0
   -0.9442    5.0237    4.2090 H   0  0  0  0  0  0  0  0  0  0  0  0
   -1.2435    4.0031    5.5986 H   0  0  0  0  0  0  0  0  0  0  0  0
   -2.0825    3.7187    3.9550 H   0  0  0  0  0  0  0  0  0  0  0  0
   -1.3417    0.5733    3.2145 H   0  0  0  0  0  0  0  0  0  0  0  0
   -3.6681    0.5861    2.9560 H   0  0  0  0  0  0  0  0  0  0  0  0
   -4.1218   -0.6205    5.7087 H   0  0  0  0  0  0  0  0  0  0  0  0
   -2.3943   -1.5633    3.3003 H   0  0  0  0  0  0  0  0  0  0  0  0
   -1.9028   -1.0802    4.9809 H   0  0  0  0  0  0  0  0  0  0  0  0
   -2.7734   -2.5951    4.7264 H   0  0  0  0  0  0  0  0  0  0  0  0
   -5.9140   -0.8614    3.6371 H   0  0  0  0  0  0  0  0  0  0  0  0
   -4.8571   -2.3476    3.3629 H   0  0  0  0  0  0  0  0  0  0  0  0
   -5.6397   -2.0409    4.9256 H   0  0  0  0  0  0  0  0  0  0  0  0
   -5.3700    0.8021    6.3833 H   0  0  0  0  0  0  0  0  0  0  0  0
   -5.1612    2.6076    5.9999 H   0  0  0  0  0  0  0  0  0  0  0  0
   -6.6703    1.7483    5.6764 H   0  0  0  0  0  0  0  0  0  0  0  0
   -6.2874    3.5365    1.1299 H   0  0  0  0  0  0  0  0  0  0  0  0
   -7.3304    2.0971    1.0708 H   0  0  0  0  0  0  0  0  0  0  0  0
   -4.2786    3.5863   -0.4294 H   0  0  0  0  0  0  0  0  0  0  0  0
   -3.5893    3.2278   -2.7215 H   0  0  0  0  0  0  0  0  0  0  0  0
   -6.6320    0.2951   -3.1839 H   0  0  0  0  0  0  0  0  0  0  0  0
   -7.3399    0.6584   -0.8414 H   0  0  0  0  0  0  0  0  0  0  0  0
   -4.9294    2.0835   -5.2850 H   0  0  0  0  0  0  0  0  0  0  0  0
   -4.0718   -0.0246   -6.8379 H   0  0  0  0  0  0  0  0  0  0  0  0
   -1.5806    1.2919   -5.7375 H   0  0  0  0  0  0  0  0  0  0  0  0
   -2.9754    1.9627   -6.5884 H   0  0  0  0  0  0  0  0  0  0  0  0
   -2.5268    0.8002   -8.6465 H   0  0  0  0  0  0  0  0  0  0  0  0
   -1.1712   -0.1015   -7.9894 H   0  0  0  0  0  0  0  0  0  0  0  0
    0.0804    1.9806   -7.4456 H   0  0  0  0  0  0  0  0  0  0  0  0
   -0.2895    1.7758   -9.1721 H   0  0  0  0  0  0  0  0  0  0  0  0
   -2.3878    3.3010   -8.0011 H   0  0  0  0  0  0  0  0  0  0  0  0
   -1.7380    6.1151   -9.3768 H   0  0  0  0  0  0  0  0  0  0  0  0
   -1.5766    6.1932   -7.6200 H   0  0  0  0  0  0  0  0  0  0  0  0
   -3.3025   -2.1580   -6.2254 H   0  0  0  0  0  0  0  0  0  0  0  0
   -1.4713   -3.5188   -5.0408 H   0  0  0  0  0  0  0  0  0  0  0  0
   -2.3299   -3.8176   -7.0905 H   0  0  0  0  0  0  0  0  0  0  0  0
   -0.2363   -3.9450   -8.9843 H   0  0  0  0  0  0  0  0  0  0  0  0
   -1.5702   -2.7998   -8.9473 H   0  0  0  0  0  0  0  0  0  0  0  0
   -0.0535   -2.2659   -8.2109 H   0  0  0  0  0  0  0  0  0  0  0  0
   -0.8563   -5.7420   -7.8622 H   0  0  0  0  0  0  0  0  0  0  0  0
    0.4099   -5.1217   -6.7713 H   0  0  0  0  0  0  0  0  0  0  0  0
   -1.1617   -5.6740   -6.1058 H   0  0  0  0  0  0  0  0  0  0  0  0
    1.3341   -2.7187   -5.9289 H   0  0  0  0  0  0  0  0  0  0  0  0
    2.5676   -3.2849   -3.5078 H   0  0  0  0  0  0  0  0  0  0  0  0
    2.9057   -4.4307   -4.8038 H   0  0  0  0  0  0  0  0  0  0  0  0
    3.5803   -5.2619   -2.6466 H   0  0  0  0  0  0  0  0  0  0  0  0
    2.2532   -6.2925   -3.3052 H   0  0  0  0  0  0  0  0  0  0  0  0
    2.0686   -4.0502   -1.1450 H   0  0  0  0  0  0  0  0  0  0  0  0
    0.6686   -4.9716   -1.7409 H   0  0  0  0  0  0  0  0  0  0  0  0
    3.0287   -6.0925   -0.1462 H   0  0  0  0  0  0  0  0  0  0  0  0
    1.3969   -5.6958    0.3898 H   0  0  0  0  0  0  0  0  0  0  0  0
    2.2430   -7.9358   -1.5406 H   0  0  0  0  0  0  0  0  0  0  0  0
    1.7824   -8.0378    0.1527 H   0  0  0  0  0  0  0  0  0  0  0  0
   -3.0454   -8.3244   -0.3363 H   0  0  0  0  0  0  0  0  0  0  0  0
   -2.6781   -8.1811   -2.8912 H   0  0  0  0  0  0  0  0  0  0  0  0
  1  2  1  0
  2  3  1  0
  3  4  1  0
  3  5  1  0
  5  6  1  0
  6  7  1  0
  7  8  1  0
  8  9  2  0
  8 10  1  0
 10 11  1  0
 11 12  1  0
 12 13  1  0
 13 14  1  0
 14 15  1  0
 15 16  1  0
 16 17  1  0
 16 18  1  0
 18 19  2  0
 18 20  1  0
 20 21  1  0
 21 22  1  0
 21 23  1  0
 23 24  1  0
 24 25  2  0
 25 26  1  0
 26 27  2  0
 27 28  1  0
 28 29  2  0
 23 30  1  0
 15 31  1  0
 31 32  1  0
  6 33  1  0
 33 34  1  0
  5 35  1  0
 35 36  1  0
 35 37  1  0
 37 38  2  0
 37 39  1  0
 39 40  1  0
 40 41  1  0
 40 42  1  0
 39 43  1  0
 43 44  1  0
 44 45  2  0
 44 46  1  0
 46 47  1  0
 47 48  1  0
 47 49  1  0
 46 50  1  0
 50 51  1  0
 50 52  1  0
 52 53  2  0
 52 54  1  0
 54 55  1  0
 55 56  1  0
 56 57  1  0
 57 58  2  0
 58 59  1  0
 59 60  2  0
 60 61  1  0
 59 62  1  0
 62 63  1  0
 63 64  2  0
 63 65  1  0
 65 66  1  0
 66 67  1  0
 67 68  1  0
 68 69  1  0
 69 70  1  0
 70 71  2  0
 70 72  1  0
 65 73  1  0
 73 74  1  0
 74 75  2  0
 74 76  1  0
 76 77  1  0
 77 78  1  0
 77 79  1  0
 76 80  1  0
 80 81  1  0
 81 82  2  0
 81 83  1  0
 83 84  1  0
 84 85  1  0
 85 86  1  0
 86 87  1  0
 87 88  1  0
 88 89  1  0
 89 90  2  0
 89 91  1  0
 91 92  2  0
 92 93  1  0
 93 94  2  0
 14 10  1  0
 29 24  1  0
 61 56  2  0
 93 88  1  0
  1 95  1  0
  1 96  1  0
  1 97  1  0
  2 98  1  0
  2 99  1  0
  3100  1  6
  4101  1  0
  4102  1  0
  4103  1  0
  5104  1  1
  6105  1  6
  7106  1  0
  7107  1  0
 11108  1  0
 11109  1  0
 12110  1  0
 12111  1  0
 13112  1  0
 13113  1  0
 14114  1  1
 15115  1  6
 16116  1  1
 17117  1  0
 17118  1  0
 17119  1  0
 20120  1  0
 21121  1  6
 22122  1  0
 22123  1  0
 22124  1  0
 23125  1  1
 25126  1  0
 26127  1  0
 27128  1  0
 28129  1  0
 29130  1  0
 30131  1  0
 32132  1  0
 32133  1  0
 32134  1  0
 34135  1  0
 34136  1  0
 34137  1  0
 36138  1  0
 36139  1  0
 36140  1  0
 39141  1  1
 40142  1  0
 41143  1  0
 41144  1  0
 41145  1  0
 42146  1  0
 42147  1  0
 42148  1  0
 43149  1  0
 46150  1  6
 47151  1  0
 48152  1  0
 48153  1  0
 48154  1  0
 49155  1  0
 49156  1  0
 49157  1  0
 51158  1  0
 51159  1  0
 51160  1  0
 55161  1  0
 55162  1  0
 57163  1  0
 58164  1  0
 60165  1  0
 61166  1  0
 62167  1  0
 65168  1  6
 66169  1  0
 66170  1  0
 67171  1  0
 67172  1  0
 68173  1  0
 68174  1  0
 69175  1  0
 72176  1  0
 72177  1  0
 73178  1  0
 76179  1  1
 77180  1  0
 78181  1  0
 78182  1  0
 78183  1  0
 79184  1  0
 79185  1  0
 79186  1  0
 80187  1  0
 83188  1  0
 83189  1  0
 84190  1  0
 84191  1  0
 85192  1  0
 85193  1  0
 86194  1  0
 86195  1  0
 87196  1  0
 87197  1  0
 91198  1  0
 92199  1  0
M  END
$$$$

     RDKit          3D

199202  0  0  0  0  0  0  0  0999 V2000
    3.7320    3.9787   -5.4908 C   0  0  0  0  0  0  0  0  0  0  0  0
    3.1469    4.3625   -4.1883 C   0  0  0  0  0  0  0  0  0  0  0  0
    2.5521    3.2081   -3.3795 C   0  0  2  0  0  0  0  0  0  0  0  0
    3.6484    2.2499   -3.1515 C   0  0  0  0  0  0  0  0  0  0  0  0
    1.2281    2.7467   -3.8030 C   0  0  1  0  0  0  0  0  0  0  0  0
    0.9460    2.2064   -5.1337 C   0  0  1  0  0  0  0  0  0  0  0  0
    0.5046    0.8655   -5.4546 C   0  0  0  0  0  0  0  0  0  0  0  0
    1.0689   -0.4169   -5.2355 C   0  0  0  0  0  0  0  0  0  0  0  0
    0.2790   -1.2815   -4.6267 O   0  0  0  0  0  0  0  0  0  0  0  0
    2.3401   -0.9617   -5.5597 N   0  0  0  0  0  0  0  0  0  0  0  0
    3.5195   -0.3884   -6.1226 C   0  0  0  0  0  0  0  0  0  0  0  0
    3.8891   -1.4567   -7.1558 C   0  0  0  0  0  0  0  0  0  0  0  0
    3.7768   -2.7015   -6.2537 C   0  0  0  0  0  0  0  0  0  0  0  0
    2.5698   -2.4252   -5.3999 C   0  0  1  0  0  0  0  0  0  0  0  0
    2.7897   -2.8234   -3.9605 C   0  0  1  0  0  0  0  0  0  0  0  0
    2.4810   -4.2575   -3.7688 C   0  0  1  0  0  0  0  0  0  0  0  0
    3.3215   -5.2086   -4.6112 C   0  0  0  0  0  0  0  0  0  0  0  0
    2.6039   -4.6629   -2.3540 C   0  0  0  0  0  0  0  0  0  0  0  0
    3.1768   -4.0371   -1.4534 O   0  0  0  0  0  0  0  0  0  0  0  0
    1.9856   -5.9202   -1.9623 N   0  0  0  0  0  0  0  0  0  0  0  0
    2.1002   -6.3059   -0.5474 C   0  0  2  0  0  0  0  0  0  0  0  0
    2.5596   -7.7145   -0.3890 C   0  0  0  0  0  0  0  0  0  0  0  0
    0.7332   -6.0722    0.0828 C   0  0  1  0  0  0  0  0  0  0  0  0
   -0.3538   -6.8074   -0.5891 C   0  0  0  0  0  0  0  0  0  0  0  0
   -0.6015   -8.1522   -0.2243 C   0  0  0  0  0  0  0  0  0  0  0  0
   -1.6156   -8.8570   -0.8505 C   0  0  0  0  0  0  0  0  0  0  0  0
   -2.4113   -8.2879   -1.8339 C   0  0  0  0  0  0  0  0  0  0  0  0
   -2.1799   -7.0048   -2.1843 C   0  0  0  0  0  0  0  0  0  0  0  0
   -1.1726   -6.3136   -1.5609 C   0  0  0  0  0  0  0  0  0  0  0  0
    0.7745   -6.3922    1.4570 O   0  0  0  0  0  0  0  0  0  0  0  0
    3.9250   -2.3931   -3.3718 O   0  0  0  0  0  0  0  0  0  0  0  0
    3.6523   -1.3169   -2.5407 C   0  0  0  0  0  0  0  0  0  0  0  0
   -0.2945    2.9560   -5.5202 O   0  0  0  0  0  0  0  0  0  0  0  0
    0.0196    3.8128   -6.5447 C   0  0  0  0  0  0  0  0  0  0  0  0
    0.2862    2.4000   -2.7263 N   0  0  0  0  0  0  0  0  0  0  0  0
    0.5598    1.2114   -1.9148 C   0  0  0  0  0  0  0  0  0  0  0  0
   -0.8543    3.2091   -2.4443 C   0  0  0  0  0  0  0  0  0  0  0  0
   -1.0220    4.1783   -3.2692 O   0  0  0  0  0  0  0  0  0  0  0  0
   -1.7946    3.0373   -1.3709 C   0  0  1  0  0  0  0  0  0  0  0  0
   -1.3405    3.9376   -0.1912 C   0  0  0  0  0  0  0  0  0  0  0  0
    0.0338    3.5917    0.2932 C   0  0  0  0  0  0  0  0  0  0  0  0
   -1.3845    5.3965   -0.5322 C   0  0  0  0  0  0  0  0  0  0  0  0
   -3.0459    3.7128   -1.7989 N   0  0  0  0  0  0  0  0  0  0  0  0
   -4.2206    3.1562   -1.2085 C   0  0  0  0  0  0  0  0  0  0  0  0
   -4.0998    2.1931   -0.3873 O   0  0  0  0  0  0  0  0  0  0  0  0
   -5.5251    3.7239   -1.5814 C   0  0  1  0  0  0  0  0  0  0  0  0
   -5.8128    3.4333   -3.0633 C   0  0  0  0  0  0  0  0  0  0  0  0
   -7.1610    4.0118   -3.3829 C   0  0  0  0  0  0  0  0  0  0  0  0
   -5.6511    2.0088   -3.4392 C   0  0  0  0  0  0  0  0  0  0  0  0
   -6.6153    3.3799   -0.7277 N   0  0  0  0  0  0  0  0  0  0  0  0
   -7.3582    4.5093   -0.1231 C   0  0  0  0  0  0  0  0  0  0  0  0
   -7.0517    2.0679   -0.3880 C   0  0  0  0  0  0  0  0  0  0  0  0
   -6.4844    1.0175   -0.7683 O   0  0  0  0  0  0  0  0  0  0  0  0
   -8.1583    1.9502    0.4058 O   0  0  0  0  0  0  0  0  0  0  0  0
   -8.7456    0.7675    0.8876 C   0  0  0  0  0  0  0  0  0  0  0  0
   -7.7399    0.0754    1.7627 C   0  0  0  0  0  0  0  0  0  0  0  0
   -6.9763   -0.9840    1.3693 C   0  0  0  0  0  0  0  0  0  0  0  0
   -6.0534   -1.4987    2.2689 C   0  0  0  0  0  0  0  0  0  0  0  0
   -5.9191   -0.9505    3.5137 C   0  0  0  0  0  0  0  0  0  0  0  0
   -6.6923    0.1451    3.9508 C   0  0  0  0  0  0  0  0  0  0  0  0
   -7.5912    0.6099    3.0137 C   0  0  0  0  0  0  0  0  0  0  0  0
   -5.0024   -1.4207    4.5176 N   0  0  0  0  0  0  0  0  0  0  0  0
   -3.6518   -0.9984    4.5640 C   0  0  0  0  0  0  0  0  0  0  0  0
   -3.2463   -0.1973    3.6895 O   0  0  0  0  0  0  0  0  0  0  0  0
   -2.7083   -1.4640    5.6158 C   0  0  1  0  0  0  0  0  0  0  0  0
   -2.2773   -2.8936    5.4989 C   0  0  0  0  0  0  0  0  0  0  0  0
   -3.3603   -3.9184    5.5497 C   0  0  0  0  0  0  0  0  0  0  0  0
   -2.7958   -5.3337    5.4903 C   0  0  0  0  0  0  0  0  0  0  0  0
   -1.9049   -5.5862    6.6126 N   0  0  0  0  0  0  0  0  0  0  0  0
   -1.2532   -6.8463    6.7676 C   0  0  0  0  0  0  0  0  0  0  0  0
   -1.4444   -7.7639    5.9339 O   0  0  0  0  0  0  0  0  0  0  0  0
   -0.3762   -7.0747    7.8725 N   0  0  0  0  0  0  0  0  0  0  0  0
   -1.4719   -0.6442    5.5389 N   0  0  0  0  0  0  0  0  0  0  0  0
   -1.3785    0.4628    6.4153 C   0  0  0  0  0  0  0  0  0  0  0  0
   -2.4003    0.6404    7.1746 O   0  0  0  0  0  0  0  0  0  0  0  0
   -0.2346    1.3841    6.5069 C   0  0  1  0  0  0  0  0  0  0  0  0
    0.1200    1.6056    7.9676 C   0  0  0  0  0  0  0  0  0  0  0  0
    0.4913    0.3383    8.6832 C   0  0  0  0  0  0  0  0  0  0  0  0
   -1.0814    2.2777    8.6228 C   0  0  0  0  0  0  0  0  0  0  0  0
    0.8955    0.9921    5.6998 N   0  0  0  0  0  0  0  0  0  0  0  0
    1.5077    1.8456    4.7437 C   0  0  0  0  0  0  0  0  0  0  0  0
    1.0171    3.0136    4.6076 O   0  0  0  0  0  0  0  0  0  0  0  0
    2.6637    1.3638    3.9635 C   0  0  0  0  0  0  0  0  0  0  0  0
    3.1858    2.4023    3.0070 C   0  0  0  0  0  0  0  0  0  0  0  0
    4.3935    1.8584    2.2559 C   0  0  0  0  0  0  0  0  0  0  0  0
    4.9586    2.8735    1.2912 C   0  0  0  0  0  0  0  0  0  0  0  0
    6.1632    2.3451    0.5478 C   0  0  0  0  0  0  0  0  0  0  0  0
    7.2232    1.9636    1.4431 N   0  0  0  0  0  0  0  0  0  0  0  0
    7.4711    0.6615    2.0387 C   0  0  0  0  0  0  0  0  0  0  0  0
    6.6763   -0.2851    1.7481 O   0  0  0  0  0  0  0  0  0  0  0  0
    8.6294    0.7083    2.8852 C   0  0  0  0  0  0  0  0  0  0  0  0
    9.0710    1.9695    2.8168 C   0  0  0  0  0  0  0  0  0  0  0  0
    8.2584    2.7793    1.9556 C   0  0  0  0  0  0  0  0  0  0  0  0
    8.5014    4.0073    1.7475 O   0  0  0  0  0  0  0  0  0  0  0  0
    4.0157    2.9167   -5.4842 H   0  0  0  0  0  0  0  0  0  0  0  0
    4.7258    4.5354   -5.5687 H   0  0  0  0  0  0  0  0  0  0  0  0
    3.1896    4.3164   -6.3982 H   0  0  0  0  0  0  0  0  0  0  0  0
    2.2571    5.0477   -4.3485 H   0  0  0  0  0  0  0  0  0  0  0  0
    3.8361    4.9693   -3.5753 H   0  0  0  0  0  0  0  0  0  0  0  0
    2.4052    3.7265   -2.3530 H   0  0  0  0  0  0  0  0  0  0  0  0
    4.6014    2.7096   -2.8265 H   0  0  0  0  0  0  0  0  0  0  0  0
    3.7901    1.5698   -4.0150 H   0  0  0  0  0  0  0  0  0  0  0  0
    3.3756    1.5698   -2.2888 H   0  0  0  0  0  0  0  0  0  0  0  0
    0.7467    3.8601   -4.0030 H   0  0  0  0  0  0  0  0  0  0  0  0
    1.6415    2.6601   -5.8568 H   0  0  0  0  0  0  0  0  0  0  0  0
   -0.6351    0.7839   -5.1694 H   0  0  0  0  0  0  0  0  0  0  0  0
    0.2798    0.9149   -6.6083 H   0  0  0  0  0  0  0  0  0  0  0  0
    3.4152    0.5845   -6.5707 H   0  0  0  0  0  0  0  0  0  0  0  0
    4.3731   -0.3253   -5.4115 H   0  0  0  0  0  0  0  0  0  0  0  0
    3.1180   -1.5194   -7.9317 H   0  0  0  0  0  0  0  0  0  0  0  0
    4.9138   -1.3141   -7.5390 H   0  0  0  0  0  0  0  0  0  0  0  0
    3.7171   -3.6167   -6.8313 H   0  0  0  0  0  0  0  0  0  0  0  0
    4.7184   -2.6752   -5.6444 H   0  0  0  0  0  0  0  0  0  0  0  0
    1.6934   -2.9735   -5.7782 H   0  0  0  0  0  0  0  0  0  0  0  0
    1.9363   -2.1931   -3.4316 H   0  0  0  0  0  0  0  0  0  0  0  0
    1.4206   -4.5139   -4.0529 H   0  0  0  0  0  0  0  0  0  0  0  0
    3.4222   -6.2016   -4.0952 H   0  0  0  0  0  0  0  0  0  0  0  0
    4.3537   -4.8589   -4.7701 H   0  0  0  0  0  0  0  0  0  0  0  0
    2.8632   -5.4270   -5.5813 H   0  0  0  0  0  0  0  0  0  0  0  0
    1.4905   -6.5139   -2.6639 H   0  0  0  0  0  0  0  0  0  0  0  0
    2.8384   -5.6258   -0.0871 H   0  0  0  0  0  0  0  0  0  0  0  0
    2.0125   -8.4240   -1.0564 H   0  0  0  0  0  0  0  0  0  0  0  0
    2.4038   -8.0416    0.6562 H   0  0  0  0  0  0  0  0  0  0  0  0
    3.6353   -7.8165   -0.6392 H   0  0  0  0  0  0  0  0  0  0  0  0
    0.5362   -4.9869   -0.0141 H   0  0  0  0  0  0  0  0  0  0  0  0
   -0.0067   -8.6321    0.5451 H   0  0  0  0  0  0  0  0  0  0  0  0
   -1.7561   -9.8740   -0.5349 H   0  0  0  0  0  0  0  0  0  0  0  0
   -3.1753   -8.9402   -2.2530 H   0  0  0  0  0  0  0  0  0  0  0  0
   -2.7773   -6.5322   -2.9443 H   0  0  0  0  0  0  0  0  0  0  0  0
   -1.0268   -5.2804   -1.8883 H   0  0  0  0  0  0  0  0  0  0  0  0
    1.7041   -6.4814    1.7452 H   0  0  0  0  0  0  0  0  0  0  0  0
    2.9462   -1.4818   -1.7357 H   0  0  0  0  0  0  0  0  0  0  0  0
    4.6070   -0.8704   -2.1518 H   0  0  0  0  0  0  0  0  0  0  0  0
    3.1594   -0.5683   -3.2393 H   0  0  0  0  0  0  0  0  0  0  0  0
   -0.9194    4.3702   -6.8310 H   0  0  0  0  0  0  0  0  0  0  0  0
    0.8015    4.5210   -6.1775 H   0  0  0  0  0  0  0  0  0  0  0  0
    0.4111    3.3382   -7.4612 H   0  0  0  0  0  0  0  0  0  0  0  0
    1.2975    1.4420   -1.1164 H   0  0  0  0  0  0  0  0  0  0  0  0
    0.8339    0.3273   -2.5039 H   0  0  0  0  0  0  0  0  0  0  0  0
   -0.3618    0.9208   -1.3755 H   0  0  0  0  0  0  0  0  0  0  0  0
   -1.9709    2.0564   -0.9429 H   0  0  0  0  0  0  0  0  0  0  0  0
   -2.0860    3.8060    0.6543 H   0  0  0  0  0  0  0  0  0  0  0  0
    0.1375    2.5750    0.6651 H   0  0  0  0  0  0  0  0  0  0  0  0
    0.3139    4.3768    1.0524 H   0  0  0  0  0  0  0  0  0  0  0  0
    0.8046    3.7386   -0.5152 H   0  0  0  0  0  0  0  0  0  0  0  0
   -0.4859    5.9457   -0.1297 H   0  0  0  0  0  0  0  0  0  0  0  0
   -1.5087    5.6510   -1.5826 H   0  0  0  0  0  0  0  0  0  0  0  0
   -2.2404    5.9312   -0.0077 H   0  0  0  0  0  0  0  0  0  0  0  0
   -3.0372    4.5056   -2.4659 H   0  0  0  0  0  0  0  0  0  0  0  0
   -5.4295    4.8565   -1.5888 H   0  0  0  0  0  0  0  0  0  0  0  0
   -5.0108    4.0317   -3.6017 H   0  0  0  0  0  0  0  0  0  0  0  0
   -7.8577    3.6065   -2.6145 H   0  0  0  0  0  0  0  0  0  0  0  0
   -7.1113    5.1094   -3.2242 H   0  0  0  0  0  0  0  0  0  0  0  0
   -7.4910    3.7595   -4.4164 H   0  0  0  0  0  0  0  0  0  0  0  0
   -6.6156    1.4834   -3.4370 H   0  0  0  0  0  0  0  0  0  0  0  0
   -5.2553    2.0016   -4.5037 H   0  0  0  0  0  0  0  0  0  0  0  0
   -4.8546    1.4800   -2.8726 H   0  0  0  0  0  0  0  0  0  0  0  0
   -8.3910    4.1577    0.0179 H   0  0  0  0  0  0  0  0  0  0  0  0
   -6.8993    4.7996    0.8453 H   0  0  0  0  0  0  0  0  0  0  0  0
   -7.3149    5.3350   -0.8516 H   0  0  0  0  0  0  0  0  0  0  0  0
   -9.5913    1.0516    1.5419 H   0  0  0  0  0  0  0  0  0  0  0  0
   -9.0771    0.0899    0.0671 H   0  0  0  0  0  0  0  0  0  0  0  0
   -7.1267   -1.3801    0.3761 H   0  0  0  0  0  0  0  0  0  0  0  0
   -5.4476   -2.3272    1.9855 H   0  0  0  0  0  0  0  0  0  0  0  0
   -6.5807    0.5756    4.9243 H   0  0  0  0  0  0  0  0  0  0  0  0
   -8.2016    1.4687    3.3470 H   0  0  0  0  0  0  0  0  0  0  0  0
   -5.4135   -2.0694    5.2178 H   0  0  0  0  0  0  0  0  0  0  0  0
   -3.2281   -1.3027    6.5764 H   0  0  0  0  0  0  0  0  0  0  0  0
   -1.5758   -3.1383    6.3463 H   0  0  0  0  0  0  0  0  0  0  0  0
   -1.6243   -3.0434    4.5855 H   0  0  0  0  0  0  0  0  0  0  0  0
   -3.9571   -3.8171    6.4630 H   0  0  0  0  0  0  0  0  0  0  0  0
   -4.0443   -3.7745    4.6688 H   0  0  0  0  0  0  0  0  0  0  0  0
   -2.2569   -5.4703    4.5246 H   0  0  0  0  0  0  0  0  0  0  0  0
   -3.6509   -6.0184    5.5435 H   0  0  0  0  0  0  0  0  0  0  0  0
   -1.6982   -4.8815    7.3555 H   0  0  0  0  0  0  0  0  0  0  0  0
    0.5971   -6.7384    7.7732 H   0  0  0  0  0  0  0  0  0  0  0  0
   -0.6784   -7.5513    8.7492 H   0  0  0  0  0  0  0  0  0  0  0  0
   -0.7088   -0.8687    4.8729 H   0  0  0  0  0  0  0  0  0  0  0  0
   -0.5112    2.4173    6.1340 H   0  0  0  0  0  0  0  0  0  0  0  0
    0.9617    2.3354    7.9805 H   0  0  0  0  0  0  0  0  0  0  0  0
    1.5332    0.4338    9.0436 H   0  0  0  0  0  0  0  0  0  0  0  0
   -0.1221    0.2114    9.6174 H   0  0  0  0  0  0  0  0  0  0  0  0
    0.4178   -0.5548    8.0271 H   0  0  0  0  0  0  0  0  0  0  0  0
   -1.6660    1.5351    9.1886 H   0  0  0  0  0  0  0  0  0  0  0  0
   -0.7044    3.0729    9.3069 H   0  0  0  0  0  0  0  0  0  0  0  0
   -1.6982    2.7562    7.8423 H   0  0  0  0  0  0  0  0  0  0  0  0
    1.2796    0.0336    5.8301 H   0  0  0  0  0  0  0  0  0  0  0  0
    2.3392    0.4672    3.3687 H   0  0  0  0  0  0  0  0  0  0  0  0
    3.4845    1.0397    4.6590 H   0  0  0  0  0  0  0  0  0  0  0  0
    3.3942    3.3578    3.4815 H   0  0  0  0  0  0  0  0  0  0  0  0
    2.4269    2.6105    2.1955 H   0  0  0  0  0  0  0  0  0  0  0  0
    5.1690    1.6614    3.0477 H   0  0  0  0  0  0  0  0  0  0  0  0
    4.1414    0.9282    1.7457 H   0  0  0  0  0  0  0  0  0  0  0  0
    4.1607    3.0077    0.5040 H   0  0  0  0  0  0  0  0  0  0  0  0
    5.1443    3.8534    1.7736 H   0  0  0  0  0  0  0  0  0  0  0  0
    5.8017    1.4743   -0.0499 H   0  0  0  0  0  0  0  0  0  0  0  0
    6.5758    3.0891   -0.1499 H   0  0  0  0  0  0  0  0  0  0  0  0
    9.0181   -0.1255    3.4404 H   0  0  0  0  0  0  0  0  0  0  0  0
    9.9537    2.2639    3.3844 H   0  0  0  0  0  0  0  0  0  0  0  0
  1  2  1  0
  2  3  1  0
  3  4  1  0
  3  5  1  0
  5  6  1  0
  6  7  1  0
  7  8  1  0
  8  9  2  0
  8 10  1  0
 10 11  1  0
 11 12  1  0
 12 13  1  0
 13 14  1  0
 14 15  1  0
 15 16  1  0
 16 17  1  0
 16 18  1  0
 18 19  2  0
 18 20  1  0
 20 21  1  0
 21 22  1  0
 21 23  1  0
 23 24  1  0
 24 25  2  0
 25 26  1  0
 26 27  2  0
 27 28  1  0
 28 29  2  0
 23 30  1  0
 15 31  1  0
 31 32  1  0
  6 33  1  0
 33 34  1  0
  5 35  1  0
 35 36  1  0
 35 37  1  0
 37 38  2  0
 37 39  1  0
 39 40  1  0
 40 41  1  0
 40 42  1  0
 39 43  1  0
 43 44  1  0
 44 45  2  0
 44 46  1  0
 46 47  1  0
 47 48  1  0
 47 49  1  0
 46 50  1  0
 50 51  1  0
 50 52  1  0
 52 53  2  0
 52 54  1  0
 54 55  1  0
 55 56  1  0
 56 57  1  0
 57 58  2  0
 58 59  1  0
 59 60  2  0
 60 61  1  0
 59 62  1  0
 62 63  1  0
 63 64  2  0
 63 65  1  0
 65 66  1  0
 66 67  1  0
 67 68  1  0
 68 69  1  0
 69 70  1  0
 70 71  2  0
 70 72  1  0
 65 73  1  0
 73 74  1  0
 74 75  2  0
 74 76  1  0
 76 77  1  0
 77 78  1  0
 77 79  1  0
 76 80  1  0
 80 81  1  0
 81 82  2  0
 81 83  1  0
 83 84  1  0
 84 85  1  0
 85 86  1  0
 86 87  1  0
 87 88  1  0
 88 89  1  0
 89 90  2  0
 89 91  1  0
 91 92  2  0
 92 93  1  0
 93 94  2  0
 14 10  1  0
 29 24  1  0
 61 56  2  0
 93 88  1  0
  1 95  1  0
  1 96  1  0
  1 97  1  0
  2 98  1  0
  2 99  1  0
  3100  1  1
  4101  1  0
  4102  1  0
  4103  1  0
  5104  1  6
  6105  1  6
  7106  1  0
  7107  1  0
 11108  1  0
 11109  1  0
 12110  1  0
 12111  1  0
 13112  1  0
 13113  1  0
 14114  1  6
 15115  1  1
 16116  1  6
 17117  1  0
 17118  1  0
 17119  1  0
 20120  1  0
 21121  1  1
 22122  1  0
 22123  1  0
 22124  1  0
 23125  1  1
 25126  1  0
 26127  1  0
 27128  1  0
 28129  1  0
 29130  1  0
 30131  1  0
 32132  1  0
 32133  1  0
 32134  1  0
 34135  1  0
 34136  1  0
 34137  1  0
 36138  1  0
 36139  1  0
 36140  1  0
 39141  1  1
 40142  1  0
 41143  1  0
 41144  1  0
 41145  1  0
 42146  1  0
 42147  1  0
 42148  1  0
 43149  1  0
 46150  1  6
 47151  1  0
 48152  1  0
 48153  1  0
 48154  1  0
 49155  1  0
 49156  1  0
 49157  1  0
 51158  1  0
 51159  1  0
 51160  1  0
 55161  1  0
 55162  1  0
 57163  1  0
 58164  1  0
 60165  1  0
 61166  1  0
 62167  1  0
 65168  1  1
 66169  1  0
 66170  1  0
 67171  1  0
 67172  1  0
 68173  1  0
 68174  1  0
 69175  1  0
 72176  1  0
 72177  1  0
 73178  1  0
 76179  1  6
 77180  1  0
 78181  1  0
 78182  1  0
 78183  1  0
 79184  1  0
 79185  1  0
 79186  1  0
 80187  1  0
 83188  1  0
 83189  1  0
 84190  1  0
 84191  1  0
 85192  1  0
 85193  1  0
 86194  1  0
 86195  1  0
 87196  1  0
 87197  1  0
 91198  1  0
 92199  1  0
M  END
$$$$

     RDKit          3D

199202  0  0  0  0  0  0  0  0999 V2000
    0.9343   -4.2070   -3.6623 C   0  0  0  0  0  0  0  0  0  0  0  0
   -0.3647   -3.4624   -3.4444 C   0  0  0  0  0  0  0  0  0  0  0  0
   -0.0422   -2.2263   -2.6428 C   0  0  2  0  0  0  0  0  0  0  0  0
    0.5511   -2.5790   -1.3679 C   0  0  0  0  0  0  0  0  0  0  0  0
   -1.1094   -1.1308   -2.7460 C   0  0  1  0  0  0  0  0  0  0  0  0
   -2.4632   -1.5601   -2.3230 C   0  0  1  0  0  0  0  0  0  0  0  0
   -2.6662   -2.1974   -1.0234 C   0  0  0  0  0  0  0  0  0  0  0  0
   -4.0922   -2.5084   -0.7184 C   0  0  0  0  0  0  0  0  0  0  0  0
   -5.0857   -1.9450   -1.1526 O   0  0  0  0  0  0  0  0  0  0  0  0
   -4.3359   -3.6094    0.2000 N   0  0  0  0  0  0  0  0  0  0  0  0
   -3.2233   -4.3847    0.8132 C   0  0  0  0  0  0  0  0  0  0  0  0
   -3.8643   -5.4249    1.6605 C   0  0  0  0  0  0  0  0  0  0  0  0
   -5.1242   -4.6324    2.0762 C   0  0  0  0  0  0  0  0  0  0  0  0
   -5.5158   -4.2050    0.6721 C   0  0  1  0  0  0  0  0  0  0  0  0
   -6.8323   -3.6460    0.6516 C   0  0  1  0  0  0  0  0  0  0  0  0
   -7.4246   -2.7647    1.6512 C   0  0  1  0  0  0  0  0  0  0  0  0
   -7.5455   -3.3206    3.0617 C   0  0  0  0  0  0  0  0  0  0  0  0
   -7.1282   -1.3227    1.6416 C   0  0  0  0  0  0  0  0  0  0  0  0
   -6.5306   -0.8441    2.6491 O   0  0  0  0  0  0  0  0  0  0  0  0
   -7.5104   -0.4789    0.5285 N   0  0  0  0  0  0  0  0  0  0  0  0
   -7.2057    0.9076    0.6124 C   0  0  2  0  0  0  0  0  0  0  0  0
   -8.4747    1.7070    1.0441 C   0  0  0  0  0  0  0  0  0  0  0  0
   -6.6137    1.5703   -0.5749 C   0  0  1  0  0  0  0  0  0  0  0  0
   -6.3744    3.0116   -0.1807 C   0  0  0  0  0  0  0  0  0  0  0  0
   -7.2438    4.0149   -0.5255 C   0  0  0  0  0  0  0  0  0  0  0  0
   -6.9869    5.3116   -0.1246 C   0  0  0  0  0  0  0  0  0  0  0  0
   -5.8493    5.5792    0.6234 C   0  0  0  0  0  0  0  0  0  0  0  0
   -4.9552    4.5777    0.9843 C   0  0  0  0  0  0  0  0  0  0  0  0
   -5.2339    3.2812    0.5698 C   0  0  0  0  0  0  0  0  0  0  0  0
   -5.4225    1.1043   -1.0416 O   0  0  0  0  0  0  0  0  0  0  0  0
   -7.3108   -3.2790   -0.6387 O   0  0  0  0  0  0  0  0  0  0  0  0
   -8.2926   -4.2294   -1.0116 C   0  0  0  0  0  0  0  0  0  0  0  0
   -3.5313   -0.7677   -2.6787 O   0  0  0  0  0  0  0  0  0  0  0  0
   -4.2132   -1.2748   -3.7876 C   0  0  0  0  0  0  0  0  0  0  0  0
   -0.5917    0.1242   -2.2984 N   0  0  0  0  0  0  0  0  0  0  0  0
   -0.6414    0.3105   -0.8220 C   0  0  0  0  0  0  0  0  0  0  0  0
   -0.0780    1.2227   -3.0113 C   0  0  0  0  0  0  0  0  0  0  0  0
    0.3839    2.1592   -2.1913 O   0  0  0  0  0  0  0  0  0  0  0  0
    0.0791    1.5720   -4.3924 C   0  0  1  0  0  0  0  0  0  0  0  0
   -1.0892    2.1131   -5.1733 C   0  0  0  0  0  0  0  0  0  0  0  0
   -2.2447    1.1643   -5.2494 C   0  0  0  0  0  0  0  0  0  0  0  0
   -0.5649    2.2177   -6.6322 C   0  0  0  0  0  0  0  0  0  0  0  0
    1.1297    2.6428   -4.5502 N   0  0  0  0  0  0  0  0  0  0  0  0
    0.9682    3.9532   -4.0626 C   0  0  0  0  0  0  0  0  0  0  0  0
   -0.1356    4.1814   -3.4485 O   0  0  0  0  0  0  0  0  0  0  0  0
    1.8889    5.0691   -4.1675 C   0  0  1  0  0  0  0  0  0  0  0  0
    1.6826    5.8323   -5.5069 C   0  0  0  0  0  0  0  0  0  0  0  0
    0.3142    6.3679   -5.6804 C   0  0  0  0  0  0  0  0  0  0  0  0
    2.0771    4.9961   -6.6866 C   0  0  0  0  0  0  0  0  0  0  0  0
    1.8187    6.0925   -3.1625 N   0  0  0  0  0  0  0  0  0  0  0  0
    0.6298    6.6870   -2.6053 C   0  0  0  0  0  0  0  0  0  0  0  0
    3.0673    6.6215   -2.6336 C   0  0  0  0  0  0  0  0  0  0  0  0
    2.9921    7.4417   -1.6584 O   0  0  0  0  0  0  0  0  0  0  0  0
    4.2954    6.3153   -3.1029 O   0  0  0  0  0  0  0  0  0  0  0  0
    5.5464    6.7876   -2.6401 C   0  0  0  0  0  0  0  0  0  0  0  0
    5.8893    6.3822   -1.2640 C   0  0  0  0  0  0  0  0  0  0  0  0
    5.5627    7.0589   -0.1187 C   0  0  0  0  0  0  0  0  0  0  0  0
    5.9064    6.5898    1.1567 C   0  0  0  0  0  0  0  0  0  0  0  0
    6.5901    5.4181    1.2054 C   0  0  0  0  0  0  0  0  0  0  0  0
    6.9540    4.6889    0.0610 C   0  0  0  0  0  0  0  0  0  0  0  0
    6.6035    5.1704   -1.1711 C   0  0  0  0  0  0  0  0  0  0  0  0
    6.9497    4.7181    2.4246 N   0  0  0  0  0  0  0  0  0  0  0  0
    6.0530    3.6516    2.7224 C   0  0  0  0  0  0  0  0  0  0  0  0
    5.0582    3.4022    1.9964 O   0  0  0  0  0  0  0  0  0  0  0  0
    6.2316    2.7345    3.9066 C   0  0  1  0  0  0  0  0  0  0  0  0
    5.9717    3.3080    5.2149 C   0  0  0  0  0  0  0  0  0  0  0  0
    6.1771    2.2544    6.2858 C   0  0  0  0  0  0  0  0  0  0  0  0
    5.8907    2.9243    7.6231 C   0  0  0  0  0  0  0  0  0  0  0  0
    4.5265    3.4369    7.6941 N   0  0  0  0  0  0  0  0  0  0  0  0
    3.3997    2.5893    7.5686 C   0  0  0  0  0  0  0  0  0  0  0  0
    3.4932    1.3596    7.3910 O   0  0  0  0  0  0  0  0  0  0  0  0
    2.0922    3.1945    7.6571 N   0  0  0  0  0  0  0  0  0  0  0  0
    5.2391    1.6786    3.5989 N   0  0  0  0  0  0  0  0  0  0  0  0
    5.6025    0.9454    2.4067 C   0  0  0  0  0  0  0  0  0  0  0  0
    6.6633    1.3208    1.8545 O   0  0  0  0  0  0  0  0  0  0  0  0
    4.8270   -0.1561    1.8404 C   0  0  1  0  0  0  0  0  0  0  0  0
    5.7495   -1.2911    1.3787 C   0  0  0  0  0  0  0  0  0  0  0  0
    5.0115   -2.3920    0.6675 C   0  0  0  0  0  0  0  0  0  0  0  0
    6.8401   -0.7908    0.4654 C   0  0  0  0  0  0  0  0  0  0  0  0
    3.7797   -0.5754    2.7335 N   0  0  0  0  0  0  0  0  0  0  0  0
    3.4551   -1.8044    3.2760 C   0  0  0  0  0  0  0  0  0  0  0  0
    4.0611   -2.9047    3.1261 O   0  0  0  0  0  0  0  0  0  0  0  0
    2.2366   -1.9470    4.1735 C   0  0  0  0  0  0  0  0  0  0  0  0
    1.9271   -3.4675    4.1527 C   0  0  0  0  0  0  0  0  0  0  0  0
    1.5427   -3.7491    2.7251 C   0  0  0  0  0  0  0  0  0  0  0  0
    1.2870   -5.2018    2.4134 C   0  0  0  0  0  0  0  0  0  0  0  0
    2.5872   -5.9378    2.6650 C   0  0  0  0  0  0  0  0  0  0  0  0
    2.5383   -7.3418    2.3779 N   0  0  0  0  0  0  0  0  0  0  0  0
    2.2250   -8.4691    3.1685 C   0  0  0  0  0  0  0  0  0  0  0  0
    1.8996   -8.3939    4.3903 O   0  0  0  0  0  0  0  0  0  0  0  0
    2.3403   -9.6854    2.3541 C   0  0  0  0  0  0  0  0  0  0  0  0
    2.7033   -9.3121    1.1322 C   0  0  0  0  0  0  0  0  0  0  0  0
    2.8481   -7.8662    1.0684 C   0  0  0  0  0  0  0  0  0  0  0  0
    3.1805   -7.1807    0.0567 O   0  0  0  0  0  0  0  0  0  0  0  0
    1.0145   -4.5166   -4.7321 H   0  0  0  0  0  0  0  0  0  0  0  0
    1.7634   -3.5156   -3.4922 H   0  0  0  0  0  0  0  0  0  0  0  0
    1.0006   -5.1214   -3.0254 H   0  0  0  0  0  0  0  0  0  0  0  0
   -0.7686   -3.2288   -4.4489 H   0  0  0  0  0  0  0  0  0  0  0  0
   -1.0187   -4.1695   -2.8790 H   0  0  0  0  0  0  0  0  0  0  0  0
    0.8736   -1.8046   -3.2574 H   0  0  0  0  0  0  0  0  0  0  0  0
    1.4635   -1.9868   -1.0892 H   0  0  0  0  0  0  0  0  0  0  0  0
    1.0190   -3.6203   -1.5151 H   0  0  0  0  0  0  0  0  0  0  0  0
   -0.1270   -2.7359   -0.5512 H   0  0  0  0  0  0  0  0  0  0  0  0
   -1.1355   -1.0407   -3.8766 H   0  0  0  0  0  0  0  0  0  0  0  0
   -2.6344   -2.4693   -3.0926 H   0  0  0  0  0  0  0  0  0  0  0  0
   -2.2140   -3.2255   -1.0673 H   0  0  0  0  0  0  0  0  0  0  0  0
   -2.1840   -1.7049   -0.1452 H   0  0  0  0  0  0  0  0  0  0  0  0
   -2.7081   -4.9457   -0.0202 H   0  0  0  0  0  0  0  0  0  0  0  0
   -2.5585   -3.7653    1.4071 H   0  0  0  0  0  0  0  0  0  0  0  0
   -3.2831   -5.7049    2.5514 H   0  0  0  0  0  0  0  0  0  0  0  0
   -4.2429   -6.3060    1.0974 H   0  0  0  0  0  0  0  0  0  0  0  0
   -5.7709   -5.3599    2.5406 H   0  0  0  0  0  0  0  0  0  0  0  0
   -4.7097   -3.8244    2.6824 H   0  0  0  0  0  0  0  0  0  0  0  0
   -5.5657   -5.2150    0.1208 H   0  0  0  0  0  0  0  0  0  0  0  0
   -7.5129   -4.6061    0.7763 H   0  0  0  0  0  0  0  0  0  0  0  0
   -8.5572   -2.7421    1.3433 H   0  0  0  0  0  0  0  0  0  0  0  0
   -6.6937   -3.1619    3.7050 H   0  0  0  0  0  0  0  0  0  0  0  0
   -7.8684   -4.3789    3.0693 H   0  0  0  0  0  0  0  0  0  0  0  0
   -8.3980   -2.7960    3.6058 H   0  0  0  0  0  0  0  0  0  0  0  0
   -7.9914   -0.9083   -0.3021 H   0  0  0  0  0  0  0  0  0  0  0  0
   -6.5386    1.0601    1.5042 H   0  0  0  0  0  0  0  0  0  0  0  0
   -8.0986    2.6876    1.3526 H   0  0  0  0  0  0  0  0  0  0  0  0
   -8.8456    1.2001    1.9578 H   0  0  0  0  0  0  0  0  0  0  0  0
   -9.2372    1.6979    0.2640 H   0  0  0  0  0  0  0  0  0  0  0  0
   -7.4191    1.6128   -1.3477 H   0  0  0  0  0  0  0  0  0  0  0  0
   -8.1310    3.7833   -1.1127 H   0  0  0  0  0  0  0  0  0  0  0  0
   -7.6660    6.0861   -0.4007 H   0  0  0  0  0  0  0  0  0  0  0  0
   -5.6004    6.5731    0.9619 H   0  0  0  0  0  0  0  0  0  0  0  0
   -4.0571    4.7911    1.5776 H   0  0  0  0  0  0  0  0  0  0  0  0
   -4.5593    2.4517    0.8275 H   0  0  0  0  0  0  0  0  0  0  0  0
   -5.5288    1.0342   -2.0471 H   0  0  0  0  0  0  0  0  0  0  0  0
   -7.8888   -5.2561   -1.0701 H   0  0  0  0  0  0  0  0  0  0  0  0
   -9.0615   -4.2129   -0.2000 H   0  0  0  0  0  0  0  0  0  0  0  0
   -8.7453   -3.9591   -1.9637 H   0  0  0  0  0  0  0  0  0  0  0  0
   -3.5392   -1.3110   -4.6823 H   0  0  0  0  0  0  0  0  0  0  0  0
   -4.6650   -2.2706   -3.6173 H   0  0  0  0  0  0  0  0  0  0  0  0
   -5.0369   -0.5867   -4.0430 H   0  0  0  0  0  0  0  0  0  0  0  0
   -0.1572   -0.4547   -0.2584 H   0  0  0  0  0  0  0  0  0  0  0  0
   -1.6998    0.5497   -0.6034 H   0  0  0  0  0  0  0  0  0  0  0  0
   -0.1212    1.2785   -0.5404 H   0  0  0  0  0  0  0  0  0  0  0  0
    0.4638    0.7204   -5.0201 H   0  0  0  0  0  0  0  0  0  0  0  0
   -1.4020    3.1185   -4.8400 H   0  0  0  0  0  0  0  0  0  0  0  0
   -2.8603    1.1726   -4.3423 H   0  0  0  0  0  0  0  0  0  0  0  0
   -1.9700    0.1680   -5.6304 H   0  0  0  0  0  0  0  0  0  0  0  0
   -2.9756    1.5249   -6.0638 H   0  0  0  0  0  0  0  0  0  0  0  0
    0.5139    2.3289   -6.6579 H   0  0  0  0  0  0  0  0  0  0  0  0
   -1.0575    3.0372   -7.1732 H   0  0  0  0  0  0  0  0  0  0  0  0
   -0.7918    1.2654   -7.1622 H   0  0  0  0  0  0  0  0  0  0  0  0
    2.0171    2.4188   -5.0432 H   0  0  0  0  0  0  0  0  0  0  0  0
    2.9587    4.7702   -4.2679 H   0  0  0  0  0  0  0  0  0  0  0  0
    2.4069    6.7015   -5.5061 H   0  0  0  0  0  0  0  0  0  0  0  0
   -0.1266    6.1461   -6.6814 H   0  0  0  0  0  0  0  0  0  0  0  0
   -0.3949    6.0316   -4.8643 H   0  0  0  0  0  0  0  0  0  0  0  0
    0.3317    7.4741   -5.6195 H   0  0  0  0  0  0  0  0  0  0  0  0
    2.6535    5.5940   -7.4481 H   0  0  0  0  0  0  0  0  0  0  0  0
    1.2221    4.5140   -7.1859 H   0  0  0  0  0  0  0  0  0  0  0  0
    2.8157    4.2397   -6.3407 H   0  0  0  0  0  0  0  0  0  0  0  0
    0.3652    7.5974   -3.2244 H   0  0  0  0  0  0  0  0  0  0  0  0
   -0.2573    6.0950   -2.4986 H   0  0  0  0  0  0  0  0  0  0  0  0
    0.8403    7.0731   -1.5563 H   0  0  0  0  0  0  0  0  0  0  0  0
    5.5386    7.9107   -2.6530 H   0  0  0  0  0  0  0  0  0  0  0  0
    6.3111    6.4006   -3.3606 H   0  0  0  0  0  0  0  0  0  0  0  0
    5.0479    7.9950   -0.1424 H   0  0  0  0  0  0  0  0  0  0  0  0
    5.6496    7.1142    2.0592 H   0  0  0  0  0  0  0  0  0  0  0  0
    7.5034    3.7687    0.1136 H   0  0  0  0  0  0  0  0  0  0  0  0
    6.8803    4.6112   -2.0556 H   0  0  0  0  0  0  0  0  0  0  0  0
    7.7597    4.9642    3.0066 H   0  0  0  0  0  0  0  0  0  0  0  0
    7.2274    2.2469    3.7946 H   0  0  0  0  0  0  0  0  0  0  0  0
    4.9471    3.7580    5.2955 H   0  0  0  0  0  0  0  0  0  0  0  0
    6.6687    4.1721    5.4136 H   0  0  0  0  0  0  0  0  0  0  0  0
    5.4186    1.4656    6.0777 H   0  0  0  0  0  0  0  0  0  0  0  0
    7.2141    1.9039    6.2852 H   0  0  0  0  0  0  0  0  0  0  0  0
    6.1258    2.2037    8.4253 H   0  0  0  0  0  0  0  0  0  0  0  0
    6.6211    3.7676    7.7113 H   0  0  0  0  0  0  0  0  0  0  0  0
    4.3690    4.4530    7.8378 H   0  0  0  0  0  0  0  0  0  0  0  0
    1.4014    2.8635    8.3860 H   0  0  0  0  0  0  0  0  0  0  0  0
    1.8152    3.9605    7.0057 H   0  0  0  0  0  0  0  0  0  0  0  0
    4.4043    1.4865    4.1543 H   0  0  0  0  0  0  0  0  0  0  0  0
    4.3251    0.1177    0.8728 H   0  0  0  0  0  0  0  0  0  0  0  0
    6.2088   -1.7403    2.3115 H   0  0  0  0  0  0  0  0  0  0  0  0
    5.2698   -2.3425   -0.4600 H   0  0  0  0  0  0  0  0  0  0  0  0
    5.3362   -3.4124    0.9132 H   0  0  0  0  0  0  0  0  0  0  0  0
    3.9301   -2.2008    0.6509 H   0  0  0  0  0  0  0  0  0  0  0  0
    6.4498   -0.0283   -0.2081 H   0  0  0  0  0  0  0  0  0  0  0  0
    7.1478   -1.6937   -0.1457 H   0  0  0  0  0  0  0  0  0  0  0  0
    7.7702   -0.4966    0.9859 H   0  0  0  0  0  0  0  0  0  0  0  0
    3.1309    0.2444    3.0251 H   0  0  0  0  0  0  0  0  0  0  0  0
    2.5718   -1.7267    5.1989 H   0  0  0  0  0  0  0  0  0  0  0  0
    1.4111   -1.3547    3.8022 H   0  0  0  0  0  0  0  0  0  0  0  0
    1.0844   -3.6584    4.8291 H   0  0  0  0  0  0  0  0  0  0  0  0
    2.8577   -3.9633    4.4085 H   0  0  0  0  0  0  0  0  0  0  0  0
    0.5904   -3.1469    2.5779 H   0  0  0  0  0  0  0  0  0  0  0  0
    2.2370   -3.3070    1.9989 H   0  0  0  0  0  0  0  0  0  0  0  0
    0.4627   -5.6197    3.0260 H   0  0  0  0  0  0  0  0  0  0  0  0
    1.0904   -5.3192    1.3182 H   0  0  0  0  0  0  0  0  0  0  0  0
    3.3639   -5.4439    2.0207 H   0  0  0  0  0  0  0  0  0  0  0  0
    2.8611   -5.8587    3.7552 H   0  0  0  0  0  0  0  0  0  0  0  0
    2.1604  -10.7222    2.6863 H   0  0  0  0  0  0  0  0  0  0  0  0
    2.8860   -9.9429    0.2607 H   0  0  0  0  0  0  0  0  0  0  0  0
  1  2  1  0
  2  3  1  0
  3  4  1  0
  3  5  1  0
  5  6  1  0
  6  7  1  0
  7  8  1  0
  8  9  2  0
  8 10  1  0
 10 11  1  0
 11 12  1  0
 12 13  1  0
 13 14  1  0
 14 15  1  0
 15 16  1  0
 16 17  1  0
 16 18  1  0
 18 19  2  0
 18 20  1  0
 20 21  1  0
 21 22  1  0
 21 23  1  0
 23 24  1  0
 24 25  2  0
 25 26  1  0
 26 27  2  0
 27 28  1  0
 28 29  2  0
 23 30  1  0
 15 31  1  0
 31 32  1  0
  6 33  1  0
 33 34  1  0
  5 35  1  0
 35 36  1  0
 35 37  1  0
 37 38  2  0
 37 39  1  0
 39 40  1  0
 40 41  1  0
 40 42  1  0
 39 43  1  0
 43 44  1  0
 44 45  2  0
 44 46  1  0
 46 47  1  0
 47 48  1  0
 47 49  1  0
 46 50  1  0
 50 51  1  0
 50 52  1  0
 52 53  2  0
 52 54  1  0
 54 55  1  0
 55 56  1  0
 56 57  1  0
 57 58  2  0
 58 59  1  0
 59 60  2  0
 60 61  1  0
 59 62  1  0
 62 63  1  0
 63 64  2  0
 63 65  1  0
 65 66  1  0
 66 67  1  0
 67 68  1  0
 68 69  1  0
 69 70  1  0
 70 71  2  0
 70 72  1  0
 65 73  1  0
 73 74  1  0
 74 75  2  0
 74 76  1  0
 76 77  1  0
 77 78  1  0
 77 79  1  0
 76 80  1  0
 80 81  1  0
 81 82  2  0
 81 83  1  0
 83 84  1  0
 84 85  1  0
 85 86  1  0
 86 87  1  0
 87 88  1  0
 88 89  1  0
 89 90  2  0
 89 91  1  0
 91 92  2  0
 92 93  1  0
 93 94  2  0
 14 10  1  0
 29 24  1  0
 61 56  2  0
 93 88  1  0
  1 95  1  0
  1 96  1  0
  1 97  1  0
  2 98  1  0
  2 99  1  0
  3100  1  6
  4101  1  0
  4102  1  0
  4103  1  0
  5104  1  6
  6105  1  6
  7106  1  0
  7107  1  0
 11108  1  0
 11109  1  0
 12110  1  0
 12111  1  0
 13112  1  0
 13113  1  0
 14114  1  6
 15115  1  1
 16116  1  6
 17117  1  0
 17118  1  0
 17119  1  0
 20120  1  0
 21121  1  1
 22122  1  0
 22123  1  0
 22124  1  0
 23125  1  6
 25126  1  0
 26127  1  0
 27128  1  0
 28129  1  0
 29130  1  0
 30131  1  0
 32132  1  0
 32133  1  0
 32134  1  0
 34135  1  0
 34136  1  0
 34137  1  0
 36138  1  0
 36139  1  0
 36140  1  0
 39141  1  6
 40142  1  0
 41143  1  0
 41144  1  0
 41145  1  0
 42146  1  0
 42147  1  0
 42148  1  0
 43149  1  0
 46150  1  6
 47151  1  0
 48152  1  0
 48153  1  0
 48154  1  0
 49155  1  0
 49156  1  0
 49157  1  0
 51158  1  0
 51159  1  0
 51160  1  0
 55161  1  0
 55162  1  0
 57163  1  0
 58164  1  0
 60165  1  0
 61166  1  0
 62167  1  0
 65168  1  1
 66169  1  0
 66170  1  0
 67171  1  0
 67172  1  0
 68173  1  0
 68174  1  0
 69175  1  0
 72176  1  0
 72177  1  0
 73178  1  0
 76179  1  6
 77180  1  0
 78181  1  0
 78182  1  0
 78183  1  0
 79184  1  0
 79185  1  0
 79186  1  0
 80187  1  0
 83188  1  0
 83189  1  0
 84190  1  0
 84191  1  0
 85192  1  0
 85193  1  0
 86194  1  0
 86195  1  0
 87196  1  0
 87197  1  0
 91198  1  0
 92199  1  0
M  END
$$$$

     RDKit          3D

199202  0  0  0  0  0  0  0  0999 V2000
   -5.3708   -1.3011    0.4898 C   0  0  0  0  0  0  0  0  0  0  0  0
   -3.9275   -1.6292    0.8845 C   0  0  0  0  0  0  0  0  0  0  0  0
   -3.0007   -0.5117    0.3448 C   0  0  2  0  0  0  0  0  0  0  0  0
   -3.0745   -0.4619   -1.1194 C   0  0  0  0  0  0  0  0  0  0  0  0
   -1.6831   -0.4710    1.0495 C   0  0  1  0  0  0  0  0  0  0  0  0
   -0.7834   -1.6291    0.9889 C   0  0  1  0  0  0  0  0  0  0  0  0
   -0.1035   -1.9428    2.3596 C   0  0  0  0  0  0  0  0  0  0  0  0
    0.8063   -3.1007    2.1719 C   0  0  0  0  0  0  0  0  0  0  0  0
    1.9191   -2.8422    1.6116 O   0  0  0  0  0  0  0  0  0  0  0  0
    0.5296   -4.4266    2.5546 N   0  0  0  0  0  0  0  0  0  0  0  0
    1.4256   -5.5646    2.2638 C   0  0  0  0  0  0  0  0  0  0  0  0
    0.4294   -6.4334    1.4975 C   0  0  0  0  0  0  0  0  0  0  0  0
   -0.8406   -6.2345    2.2922 C   0  0  0  0  0  0  0  0  0  0  0  0
   -0.5745   -5.0474    3.2347 C   0  0  1  0  0  0  0  0  0  0  0  0
   -0.4102   -5.4857    4.6471 C   0  0  1  0  0  0  0  0  0  0  0  0
   -0.1595   -4.3689    5.6264 C   0  0  1  0  0  0  0  0  0  0  0  0
   -0.1224   -5.0489    7.0468 C   0  0  0  0  0  0  0  0  0  0  0  0
    1.1829   -3.7459    5.5889 C   0  0  0  0  0  0  0  0  0  0  0  0
    2.1467   -4.0519    4.8991 O   0  0  0  0  0  0  0  0  0  0  0  0
    1.3612   -2.6317    6.5003 N   0  0  0  0  0  0  0  0  0  0  0  0
    2.6484   -2.0017    6.5311 C   0  0  2  0  0  0  0  0  0  0  0  0
    3.2397   -2.2147    7.9235 C   0  0  0  0  0  0  0  0  0  0  0  0
    2.5157   -0.5187    6.3238 C   0  0  1  0  0  0  0  0  0  0  0  0
    3.8992    0.0912    6.1960 C   0  0  0  0  0  0  0  0  0  0  0  0
    4.6291   -0.1633    5.0273 C   0  0  0  0  0  0  0  0  0  0  0  0
    5.8938    0.3534    4.8640 C   0  0  0  0  0  0  0  0  0  0  0  0
    6.4628    1.1405    5.8674 C   0  0  0  0  0  0  0  0  0  0  0  0
    5.7269    1.3780    7.0050 C   0  0  0  0  0  0  0  0  0  0  0  0
    4.4508    0.8626    7.1814 C   0  0  0  0  0  0  0  0  0  0  0  0
    1.9156   -0.3106    5.0982 O   0  0  0  0  0  0  0  0  0  0  0  0
   -1.5565   -6.0956    5.1733 O   0  0  0  0  0  0  0  0  0  0  0  0
   -1.4173   -7.3836    5.5869 C   0  0  0  0  0  0  0  0  0  0  0  0
   -1.4865   -2.8373    0.7661 O   0  0  0  0  0  0  0  0  0  0  0  0
   -1.0032   -3.5808   -0.2774 C   0  0  0  0  0  0  0  0  0  0  0  0
   -1.0867    0.8370    1.1961 N   0  0  0  0  0  0  0  0  0  0  0  0
   -1.4238    1.6475    2.3850 C   0  0  0  0  0  0  0  0  0  0  0  0
   -0.2389    1.4497    0.2191 C   0  0  0  0  0  0  0  0  0  0  0  0
   -0.0643    0.8163   -0.8786 O   0  0  0  0  0  0  0  0  0  0  0  0
    0.4362    2.7185    0.3652 C   0  0  1  0  0  0  0  0  0  0  0  0
    1.7446    2.5698    1.1953 C   0  0  0  0  0  0  0  0  0  0  0  0
    1.5921    2.0794    2.5641 C   0  0  0  0  0  0  0  0  0  0  0  0
    2.7159    1.6773    0.4689 C   0  0  0  0  0  0  0  0  0  0  0  0
    1.0773    3.2255   -0.8862 N   0  0  0  0  0  0  0  0  0  0  0  0
    1.3299    4.6143   -0.9868 C   0  0  0  0  0  0  0  0  0  0  0  0
    0.8927    5.2883    0.0415 O   0  0  0  0  0  0  0  0  0  0  0  0
    1.9885    5.3714   -2.0063 C   0  0  1  0  0  0  0  0  0  0  0  0
    3.2020    6.0650   -1.2371 C   0  0  0  0  0  0  0  0  0  0  0  0
    2.6868    6.9712   -0.1590 C   0  0  0  0  0  0  0  0  0  0  0  0
    4.0933    6.7994   -2.1541 C   0  0  0  0  0  0  0  0  0  0  0  0
    2.5612    4.8103   -3.1655 N   0  0  0  0  0  0  0  0  0  0  0  0
    3.2546    3.5176   -3.0749 C   0  0  0  0  0  0  0  0  0  0  0  0
    2.5580    5.5130   -4.4627 C   0  0  0  0  0  0  0  0  0  0  0  0
    2.0926    6.6967   -4.4808 O   0  0  0  0  0  0  0  0  0  0  0  0
    3.0137    4.9498   -5.5082 O   0  0  0  0  0  0  0  0  0  0  0  0
    3.3995    4.8598   -6.8247 C   0  0  0  0  0  0  0  0  0  0  0  0
    3.5553    3.3333   -7.0635 C   0  0  0  0  0  0  0  0  0  0  0  0
    4.5386    2.6321   -6.4303 C   0  0  0  0  0  0  0  0  0  0  0  0
    4.4444    1.2275   -6.4879 C   0  0  0  0  0  0  0  0  0  0  0  0
    3.3894    0.7149   -7.1657 C   0  0  0  0  0  0  0  0  0  0  0  0
    2.4039    1.4431   -7.8221 C   0  0  0  0  0  0  0  0  0  0  0  0
    2.4936    2.8146   -7.7651 C   0  0  0  0  0  0  0  0  0  0  0  0
    2.9616   -0.6997   -6.9742 N   0  0  0  0  0  0  0  0  0  0  0  0
    1.9275   -0.6634   -6.0304 C   0  0  0  0  0  0  0  0  0  0  0  0
    1.7605    0.6669   -5.7128 O   0  0  0  0  0  0  0  0  0  0  0  0
    0.9924   -1.4396   -5.2781 C   0  0  1  0  0  0  0  0  0  0  0  0
    1.6278   -2.0692   -4.0480 C   0  0  0  0  0  0  0  0  0  0  0  0
    2.1996   -1.0667   -3.1112 C   0  0  0  0  0  0  0  0  0  0  0  0
    2.9007   -1.6504   -1.9103 C   0  0  0  0  0  0  0  0  0  0  0  0
    4.0401   -2.4773   -2.3337 N   0  0  0  0  0  0  0  0  0  0  0  0
    4.8256   -3.0967   -1.3087 C   0  0  0  0  0  0  0  0  0  0  0  0
    4.5020   -2.9098   -0.0827 O   0  0  0  0  0  0  0  0  0  0  0  0
    5.9513   -3.9154   -1.5864 N   0  0  0  0  0  0  0  0  0  0  0  0
   -0.0330   -0.4340   -4.9206 N   0  0  0  0  0  0  0  0  0  0  0  0
   -1.4255   -0.5683   -4.9557 C   0  0  0  0  0  0  0  0  0  0  0  0
   -1.9263   -1.6915   -5.2398 O   0  0  0  0  0  0  0  0  0  0  0  0
   -2.1972    0.6342   -4.6638 C   0  0  1  0  0  0  0  0  0  0  0  0
   -2.4319    1.3124   -6.0768 C   0  0  0  0  0  0  0  0  0  0  0  0
   -3.1894    0.2844   -6.8734 C   0  0  0  0  0  0  0  0  0  0  0  0
   -1.0994    1.6181   -6.6939 C   0  0  0  0  0  0  0  0  0  0  0  0
   -3.5374    0.4753   -4.1682 N   0  0  0  0  0  0  0  0  0  0  0  0
   -4.0753    1.7089   -3.6484 C   0  0  0  0  0  0  0  0  0  0  0  0
   -3.3235    2.7339   -3.7132 O   0  0  0  0  0  0  0  0  0  0  0  0
   -5.4040    1.9116   -3.0528 C   0  0  0  0  0  0  0  0  0  0  0  0
   -5.7455    3.3950   -3.1062 C   0  0  0  0  0  0  0  0  0  0  0  0
   -7.0544    3.6527   -2.4326 C   0  0  0  0  0  0  0  0  0  0  0  0
   -7.0795    3.3633   -0.9672 C   0  0  0  0  0  0  0  0  0  0  0  0
   -8.4793    3.6987   -0.4443 C   0  0  0  0  0  0  0  0  0  0  0  0
   -8.5696    3.4918    0.9708 N   0  0  0  0  0  0  0  0  0  0  0  0
   -8.3068    4.5282    1.9408 C   0  0  0  0  0  0  0  0  0  0  0  0
   -7.9762    5.7205    1.6410 O   0  0  0  0  0  0  0  0  0  0  0  0
   -8.4836    3.9733    3.2803 C   0  0  0  0  0  0  0  0  0  0  0  0
   -8.8291    2.6930    3.1615 C   0  0  0  0  0  0  0  0  0  0  0  0
   -8.8959    2.3429    1.7346 C   0  0  0  0  0  0  0  0  0  0  0  0
   -9.1934    1.2078    1.2493 O   0  0  0  0  0  0  0  0  0  0  0  0
   -5.5775   -0.2051    0.5470 H   0  0  0  0  0  0  0  0  0  0  0  0
   -6.0811   -1.8671    1.1406 H   0  0  0  0  0  0  0  0  0  0  0  0
   -5.5210   -1.6113   -0.5565 H   0  0  0  0  0  0  0  0  0  0  0  0
   -3.8725   -1.5621    1.9791 H   0  0  0  0  0  0  0  0  0  0  0  0
   -3.6695   -2.6092    0.4571 H   0  0  0  0  0  0  0  0  0  0  0  0
   -3.5714    0.4209    0.7063 H   0  0  0  0  0  0  0  0  0  0  0  0
   -2.8492   -1.4407   -1.6412 H   0  0  0  0  0  0  0  0  0  0  0  0
   -2.5704    0.3983   -1.5321 H   0  0  0  0  0  0  0  0  0  0  0  0
   -4.1692   -0.3132   -1.4500 H   0  0  0  0  0  0  0  0  0  0  0  0
   -2.1383   -0.5981    2.1642 H   0  0  0  0  0  0  0  0  0  0  0  0
   -0.0029   -1.6220    0.2049 H   0  0  0  0  0  0  0  0  0  0  0  0
    0.3893   -1.0798    2.7919 H   0  0  0  0  0  0  0  0  0  0  0  0
   -0.9623   -2.1795    3.0263 H   0  0  0  0  0  0  0  0  0  0  0  0
    2.2484   -5.2691    1.5862 H   0  0  0  0  0  0  0  0  0  0  0  0
    1.7220   -6.1257    3.1361 H   0  0  0  0  0  0  0  0  0  0  0  0
    0.3277   -6.0963    0.4377 H   0  0  0  0  0  0  0  0  0  0  0  0
    0.7413   -7.5095    1.5119 H   0  0  0  0  0  0  0  0  0  0  0  0
   -1.6084   -5.9207    1.5215 H   0  0  0  0  0  0  0  0  0  0  0  0
   -1.0849   -7.1554    2.7842 H   0  0  0  0  0  0  0  0  0  0  0  0
   -1.4980   -4.4166    3.1946 H   0  0  0  0  0  0  0  0  0  0  0  0
    0.4493   -6.2297    4.6920 H   0  0  0  0  0  0  0  0  0  0  0  0
   -1.0017   -3.7000    5.6580 H   0  0  0  0  0  0  0  0  0  0  0  0
    0.6982   -5.7497    7.0522 H   0  0  0  0  0  0  0  0  0  0  0  0
   -1.0892   -5.4611    7.2922 H   0  0  0  0  0  0  0  0  0  0  0  0
    0.0499   -4.1973    7.7575 H   0  0  0  0  0  0  0  0  0  0  0  0
    0.5886   -2.2882    7.1102 H   0  0  0  0  0  0  0  0  0  0  0  0
    3.3270   -2.4222    5.7654 H   0  0  0  0  0  0  0  0  0  0  0  0
    4.0367   -1.4892    8.0792 H   0  0  0  0  0  0  0  0  0  0  0  0
    3.5615   -3.2632    7.9569 H   0  0  0  0  0  0  0  0  0  0  0  0
    2.4685   -2.0305    8.7014 H   0  0  0  0  0  0  0  0  0  0  0  0
    1.9735   -0.0479    7.1353 H   0  0  0  0  0  0  0  0  0  0  0  0
    4.2410   -0.7714    4.2200 H   0  0  0  0  0  0  0  0  0  0  0  0
    6.4617    0.1550    3.9672 H   0  0  0  0  0  0  0  0  0  0  0  0
    7.4612    1.5257    5.6971 H   0  0  0  0  0  0  0  0  0  0  0  0
    6.1838    1.9945    7.7983 H   0  0  0  0  0  0  0  0  0  0  0  0
    3.9052    1.0776    8.1062 H   0  0  0  0  0  0  0  0  0  0  0  0
    2.4810    0.1479    4.4616 H   0  0  0  0  0  0  0  0  0  0  0  0
   -0.6506   -7.5733    6.3771 H   0  0  0  0  0  0  0  0  0  0  0  0
   -2.3864   -7.5884    6.1678 H   0  0  0  0  0  0  0  0  0  0  0  0
   -1.4291   -8.1719    4.8217 H   0  0  0  0  0  0  0  0  0  0  0  0
   -1.5692   -4.5281   -0.4411 H   0  0  0  0  0  0  0  0  0  0  0  0
   -1.1193   -2.9928   -1.2130 H   0  0  0  0  0  0  0  0  0  0  0  0
    0.0649   -3.7390   -0.1427 H   0  0  0  0  0  0  0  0  0  0  0  0
   -1.1468    1.1166    3.3085 H   0  0  0  0  0  0  0  0  0  0  0  0
   -2.5637    1.6836    2.4616 H   0  0  0  0  0  0  0  0  0  0  0  0
   -1.1420    2.6863    2.2977 H   0  0  0  0  0  0  0  0  0  0  0  0
   -0.0625    3.5639    0.8210 H   0  0  0  0  0  0  0  0  0  0  0  0
    2.1517    3.5947    1.2017 H   0  0  0  0  0  0  0  0  0  0  0  0
    1.2941    1.0044    2.6038 H   0  0  0  0  0  0  0  0  0  0  0  0
    1.0804    2.7294    3.2920 H   0  0  0  0  0  0  0  0  0  0  0  0
    2.6588    2.0255    2.9902 H   0  0  0  0  0  0  0  0  0  0  0  0
    2.2140    1.2561   -0.4216 H   0  0  0  0  0  0  0  0  0  0  0  0
    3.1097    0.8514    1.1287 H   0  0  0  0  0  0  0  0  0  0  0  0
    3.6126    2.2566    0.1981 H   0  0  0  0  0  0  0  0  0  0  0  0
    1.2974    2.5724   -1.6397 H   0  0  0  0  0  0  0  0  0  0  0  0
    1.4508    6.3171   -2.2823 H   0  0  0  0  0  0  0  0  0  0  0  0
    3.7610    5.2343   -0.7599 H   0  0  0  0  0  0  0  0  0  0  0  0
    1.6886    7.3879   -0.4322 H   0  0  0  0  0  0  0  0  0  0  0  0
    3.4244    7.8083   -0.0058 H   0  0  0  0  0  0  0  0  0  0  0  0
    2.6514    6.4657    0.8213 H   0  0  0  0  0  0  0  0  0  0  0  0
    5.0800    6.9109   -1.5944 H   0  0  0  0  0  0  0  0  0  0  0  0
    3.7956    7.8547   -2.3356 H   0  0  0  0  0  0  0  0  0  0  0  0
    4.3972    6.2780   -3.0850 H   0  0  0  0  0  0  0  0  0  0  0  0
    4.1783    3.6068   -3.7106 H   0  0  0  0  0  0  0  0  0  0  0  0
    3.4863    3.2180   -2.0474 H   0  0  0  0  0  0  0  0  0  0  0  0
    2.6080    2.7824   -3.5439 H   0  0  0  0  0  0  0  0  0  0  0  0
    2.7467    5.2516   -7.5854 H   0  0  0  0  0  0  0  0  0  0  0  0
    4.4164    5.2627   -7.0309 H   0  0  0  0  0  0  0  0  0  0  0  0
    5.3477    3.1210   -5.9074 H   0  0  0  0  0  0  0  0  0  0  0  0
    5.1676    0.5839   -6.0286 H   0  0  0  0  0  0  0  0  0  0  0  0
    1.5947    0.9739   -8.3622 H   0  0  0  0  0  0  0  0  0  0  0  0
    1.7461    3.3967   -8.2604 H   0  0  0  0  0  0  0  0  0  0  0  0
    3.2759   -1.5129   -7.3800 H   0  0  0  0  0  0  0  0  0  0  0  0
    0.5004   -2.2242   -5.8330 H   0  0  0  0  0  0  0  0  0  0  0  0
    2.3330   -2.8082   -4.4105 H   0  0  0  0  0  0  0  0  0  0  0  0
    0.8094   -2.5966   -3.5057 H   0  0  0  0  0  0  0  0  0  0  0  0
    3.0060   -0.4347   -3.6035 H   0  0  0  0  0  0  0  0  0  0  0  0
    1.4363   -0.3255   -2.8269 H   0  0  0  0  0  0  0  0  0  0  0  0
    3.3740   -0.8312   -1.3331 H   0  0  0  0  0  0  0  0  0  0  0  0
    2.2046   -2.2547   -1.3393 H   0  0  0  0  0  0  0  0  0  0  0  0
    4.2909   -2.6247   -3.3258 H   0  0  0  0  0  0  0  0  0  0  0  0
    6.5461   -3.8107   -2.4070 H   0  0  0  0  0  0  0  0  0  0  0  0
    6.1742   -4.6768   -0.8850 H   0  0  0  0  0  0  0  0  0  0  0  0
    0.3443    0.4931   -4.5840 H   0  0  0  0  0  0  0  0  0  0  0  0
   -1.6569    1.3423   -4.0604 H   0  0  0  0  0  0  0  0  0  0  0  0
   -2.9636    2.2617   -5.9456 H   0  0  0  0  0  0  0  0  0  0  0  0
   -3.8431    0.8211   -7.6112 H   0  0  0  0  0  0  0  0  0  0  0  0
   -2.4707   -0.3801   -7.4132 H   0  0  0  0  0  0  0  0  0  0  0  0
   -3.8393   -0.3691   -6.2676 H   0  0  0  0  0  0  0  0  0  0  0  0
   -0.6400    0.6578   -7.0075 H   0  0  0  0  0  0  0  0  0  0  0  0
   -0.4377    2.2374   -6.0714 H   0  0  0  0  0  0  0  0  0  0  0  0
   -1.2247    2.1947   -7.6528 H   0  0  0  0  0  0  0  0  0  0  0  0
   -4.1177   -0.3686   -4.1477 H   0  0  0  0  0  0  0  0  0  0  0  0
   -6.1440    1.4295   -3.7273 H   0  0  0  0  0  0  0  0  0  0  0  0
   -5.4701    1.6192   -2.0117 H   0  0  0  0  0  0  0  0  0  0  0  0
   -5.7216    3.7865   -4.1480 H   0  0  0  0  0  0  0  0  0  0  0  0
   -4.9603    3.9241   -2.5261 H   0  0  0  0  0  0  0  0  0  0  0  0
   -7.3315    4.7394   -2.5711 H   0  0  0  0  0  0  0  0  0  0  0  0
   -7.8925    3.0544   -2.8997 H   0  0  0  0  0  0  0  0  0  0  0  0
   -6.3725    4.0532   -0.4446 H   0  0  0  0  0  0  0  0  0  0  0  0
   -6.8832    2.3133   -0.7479 H   0  0  0  0  0  0  0  0  0  0  0  0
   -8.6990    4.7782   -0.6503 H   0  0  0  0  0  0  0  0  0  0  0  0
   -9.2734    3.1325   -0.9503 H   0  0  0  0  0  0  0  0  0  0  0  0
   -8.3451    4.5568    4.1852 H   0  0  0  0  0  0  0  0  0  0  0  0
   -9.0166    2.0861    4.0310 H   0  0  0  0  0  0  0  0  0  0  0  0
  1  2  1  0
  2  3  1  0
  3  4  1  0
  3  5  1  0
  5  6  1  0
  6  7  1  0
  7  8  1  0
  8  9  2  0
  8 10  1  0
 10 11  1  0
 11 12  1  0
 12 13  1  0
 13 14  1  0
 14 15  1  0
 15 16  1  0
 16 17  1  0
 16 18  1  0
 18 19  2  0
 18 20  1  0
 20 21  1  0
 21 22  1  0
 21 23  1  0
 23 24  1  0
 24 25  2  0
 25 26  1  0
 26 27  2  0
 27 28  1  0
 28 29  2  0
 23 30  1  0
 15 31  1  0
 31 32  1  0
  6 33  1  0
 33 34  1  0
  5 35  1  0
 35 36  1  0
 35 37  1  0
 37 38  2  0
 37 39  1  0
 39 40  1  0
 40 41  1  0
 40 42  1  0
 39 43  1  0
 43 44  1  0
 44 45  2  0
 44 46  1  0
 46 47  1  0
 47 48  1  0
 47 49  1  0
 46 50  1  0
 50 51  1  0
 50 52  1  0
 52 53  2  0
 52 54  1  0
 54 55  1  0
 55 56  1  0
 56 57  1  0
 57 58  2  0
 58 59  1  0
 59 60  2  0
 60 61  1  0
 59 62  1  0
 62 63  1  0
 63 64  2  0
 63 65  1  0
 65 66  1  0
 66 67  1  0
 67 68  1  0
 68 69  1  0
 69 70  1  0
 70 71  2  0
 70 72  1  0
 65 73  1  0
 73 74  1  0
 74 75  2  0
 74 76  1  0
 76 77  1  0
 77 78  1  0
 77 79  1  0
 76 80  1  0
 80 81  1  0
 81 82  2  0
 81 83  1  0
 83 84  1  0
 84 85  1  0
 85 86  1  0
 86 87  1  0
 87 88  1  0
 88 89  1  0
 89 90  2  0
 89 91  1  0
 91 92  2  0
 92 93  1  0
 93 94  2  0
 14 10  1  0
 29 24  1  0
 61 56  2  0
 93 88  1  0
  1 95  1  0
  1 96  1  0
  1 97  1  0
  2 98  1  0
  2 99  1  0
  3100  1  1
  4101  1  0
  4102  1  0
  4103  1  0
  5104  1  1
  6105  1  6
  7106  1  0
  7107  1  0
 11108  1  0
 11109  1  0
 12110  1  0
 12111  1  0
 13112  1  0
 13113  1  0
 14114  1  1
 15115  1  6
 16116  1  1
 17117  1  0
 17118  1  0
 17119  1  0
 20120  1  0
 21121  1  6
 22122  1  0
 22123  1  0
 22124  1  0
 23125  1  1
 25126  1  0
 26127  1  0
 27128  1  0
 28129  1  0
 29130  1  0
 30131  1  0
 32132  1  0
 32133  1  0
 32134  1  0
 34135  1  0
 34136  1  0
 34137  1  0
 36138  1  0
 36139  1  0
 36140  1  0
 39141  1  1
 40142  1  0
 41143  1  0
 41144  1  0
 41145  1  0
 42146  1  0
 42147  1  0
 42148  1  0
 43149  1  0
 46150  1  6
 47151  1  0
 48152  1  0
 48153  1  0
 48154  1  0
 49155  1  0
 49156  1  0
 49157  1  0
 51158  1  0
 51159  1  0
 51160  1  0
 55161  1  0
 55162  1  0
 57163  1  0
 58164  1  0
 60165  1  0
 61166  1  0
 62167  1  0
 65168  1  6
 66169  1  0
 66170  1  0
 67171  1  0
 67172  1  0
 68173  1  0
 68174  1  0
 69175  1  0
 72176  1  0
 72177  1  0
 73178  1  0
 76179  1  1
 77180  1  0
 78181  1  0
 78182  1  0
 78183  1  0
 79184  1  0
 79185  1  0
 79186  1  0
 80187  1  0
 83188  1  0
 83189  1  0
 84190  1  0
 84191  1  0
 85192  1  0
 85193  1  0
 86194  1  0
 86195  1  0
 87196  1  0
 87197  1  0
 91198  1  0
 92199  1  0
M  END
$$$$

     RDKit          3D

199202  0  0  0  0  0  0  0  0999 V2000
    1.3929   -3.8546    6.6942 C   0  0  0  0  0  0  0  0  0  0  0  0
   -0.0048   -3.5158    6.3379 C   0  0  0  0  0  0  0  0  0  0  0  0
   -0.3646   -3.9181    4.8837 C   0  0  2  0  0  0  0  0  0  0  0  0
   -0.1508   -5.3829    4.8497 C   0  0  0  0  0  0  0  0  0  0  0  0
    0.3490   -3.0403    3.9674 C   0  0  1  0  0  0  0  0  0  0  0  0
    0.1933   -3.1781    2.4846 C   0  0  1  0  0  0  0  0  0  0  0  0
    0.8901   -4.3738    1.9096 C   0  0  0  0  0  0  0  0  0  0  0  0
    0.7139   -4.4816    0.4577 C   0  0  0  0  0  0  0  0  0  0  0  0
   -0.4777   -4.5904    0.0328 O   0  0  0  0  0  0  0  0  0  0  0  0
    1.7427   -4.4845   -0.5233 N   0  0  0  0  0  0  0  0  0  0  0  0
    1.3767   -4.7244   -1.9406 C   0  0  0  0  0  0  0  0  0  0  0  0
    2.5893   -5.3162   -2.5658 C   0  0  0  0  0  0  0  0  0  0  0  0
    3.7459   -5.0642   -1.6421 C   0  0  0  0  0  0  0  0  0  0  0  0
    3.1515   -4.3066   -0.4626 C   0  0  1  0  0  0  0  0  0  0  0  0
    3.7324   -2.9600   -0.3029 C   0  0  1  0  0  0  0  0  0  0  0  0
    4.1211   -2.1423   -1.4431 C   0  0  1  0  0  0  0  0  0  0  0  0
    3.0524   -1.8192   -2.4709 C   0  0  0  0  0  0  0  0  0  0  0  0
    4.4875   -0.7513   -0.9466 C   0  0  0  0  0  0  0  0  0  0  0  0
    4.1666   -0.3213    0.1730 O   0  0  0  0  0  0  0  0  0  0  0  0
    5.2340    0.1195   -1.7919 N   0  0  0  0  0  0  0  0  0  0  0  0
    5.5974    1.4816   -1.3678 C   0  0  2  0  0  0  0  0  0  0  0  0
    5.1215    2.3884   -2.4976 C   0  0  0  0  0  0  0  0  0  0  0  0
    7.0793    1.5967   -1.2906 C   0  0  1  0  0  0  0  0  0  0  0  0
    7.5653    2.9390   -0.8887 C   0  0  0  0  0  0  0  0  0  0  0  0
    8.9507    3.0868   -0.7992 C   0  0  0  0  0  0  0  0  0  0  0  0
    9.5316    4.2891   -0.4229 C   0  0  0  0  0  0  0  0  0  0  0  0
    8.6705    5.3328   -0.1418 C   0  0  0  0  0  0  0  0  0  0  0  0
    7.2976    5.2271   -0.2182 C   0  0  0  0  0  0  0  0  0  0  0  0
    6.7666    4.0078   -0.5970 C   0  0  0  0  0  0  0  0  0  0  0  0
    7.6970    0.6985   -0.4218 O   0  0  0  0  0  0  0  0  0  0  0  0
    3.2738   -2.3370    0.8336 O   0  0  0  0  0  0  0  0  0  0  0  0
    4.1408   -2.4924    1.9140 C   0  0  0  0  0  0  0  0  0  0  0  0
   -0.9887   -2.8108    1.9262 O   0  0  0  0  0  0  0  0  0  0  0  0
   -0.9765   -1.7014    1.1143 C   0  0  0  0  0  0  0  0  0  0  0  0
    0.2355   -1.6428    4.3125 N   0  0  0  0  0  0  0  0  0  0  0  0
    1.4943   -0.9675    4.6732 C   0  0  0  0  0  0  0  0  0  0  0  0
   -0.9438   -0.8970    4.3634 C   0  0  0  0  0  0  0  0  0  0  0  0
   -2.0297   -1.6112    4.1648 O   0  0  0  0  0  0  0  0  0  0  0  0
   -1.1993    0.5095    4.5915 C   0  0  1  0  0  0  0  0  0  0  0  0
   -1.8551    0.6725    6.0010 C   0  0  0  0  0  0  0  0  0  0  0  0
   -2.1836    2.1251    6.1796 C   0  0  0  0  0  0  0  0  0  0  0  0
   -3.1416   -0.1182    6.0820 C   0  0  0  0  0  0  0  0  0  0  0  0
   -0.1190    1.4227    4.4618 N   0  0  0  0  0  0  0  0  0  0  0  0
    0.6828    2.1059    5.3812 C   0  0  0  0  0  0  0  0  0  0  0  0
    0.4872    1.9067    6.6535 O   0  0  0  0  0  0  0  0  0  0  0  0
    1.7596    3.0524    5.0930 C   0  0  1  0  0  0  0  0  0  0  0  0
    3.1356    2.3697    5.3292 C   0  0  0  0  0  0  0  0  0  0  0  0
    4.2724    3.3237    5.0398 C   0  0  0  0  0  0  0  0  0  0  0  0
    3.2626    1.9137    6.7698 C   0  0  0  0  0  0  0  0  0  0  0  0
    1.8507    3.7109    3.8646 N   0  0  0  0  0  0  0  0  0  0  0  0
    2.0047    5.1906    3.8790 C   0  0  0  0  0  0  0  0  0  0  0  0
    1.7934    3.1600    2.5501 C   0  0  0  0  0  0  0  0  0  0  0  0
    1.5350    1.9472    2.4112 O   0  0  0  0  0  0  0  0  0  0  0  0
    2.0099    3.9032    1.4132 O   0  0  0  0  0  0  0  0  0  0  0  0
    1.9331    3.5102    0.0799 C   0  0  0  0  0  0  0  0  0  0  0  0
    0.5505    3.1735   -0.3280 C   0  0  0  0  0  0  0  0  0  0  0  0
   -0.2023    4.2446   -0.8291 C   0  0  0  0  0  0  0  0  0  0  0  0
   -1.5053    4.0419   -1.2107 C   0  0  0  0  0  0  0  0  0  0  0  0
   -2.1531    2.8164   -1.1353 C   0  0  0  0  0  0  0  0  0  0  0  0
   -1.4090    1.7688   -0.6442 C   0  0  0  0  0  0  0  0  0  0  0  0
   -0.0786    1.9825   -0.2557 C   0  0  0  0  0  0  0  0  0  0  0  0
   -3.4804    2.7560   -1.5771 N   0  0  0  0  0  0  0  0  0  0  0  0
   -4.4039    1.7033   -1.4380 C   0  0  0  0  0  0  0  0  0  0  0  0
   -4.0516    0.6597   -0.8436 O   0  0  0  0  0  0  0  0  0  0  0  0
   -5.8013    1.8545   -2.0074 C   0  0  1  0  0  0  0  0  0  0  0  0
   -6.7495    2.0021   -0.8547 C   0  0  0  0  0  0  0  0  0  0  0  0
   -6.7822    0.8432    0.0926 C   0  0  0  0  0  0  0  0  0  0  0  0
   -7.8021    1.1288    1.2044 C   0  0  0  0  0  0  0  0  0  0  0  0
   -7.8801    0.0202    2.1299 N   0  0  0  0  0  0  0  0  0  0  0  0
   -6.7936   -0.4601    2.8942 C   0  0  0  0  0  0  0  0  0  0  0  0
   -5.6479    0.0408    2.8384 O   0  0  0  0  0  0  0  0  0  0  0  0
   -6.9539   -1.5722    3.7946 N   0  0  0  0  0  0  0  0  0  0  0  0
   -5.8398    3.1139   -2.7680 N   0  0  0  0  0  0  0  0  0  0  0  0
   -5.9292    3.0022   -4.1577 C   0  0  0  0  0  0  0  0  0  0  0  0
   -5.9812    1.7960   -4.6102 O   0  0  0  0  0  0  0  0  0  0  0  0
   -5.9624    4.0562   -5.1723 C   0  0  1  0  0  0  0  0  0  0  0  0
   -5.3569    5.3573   -4.9007 C   0  0  0  0  0  0  0  0  0  0  0  0
   -5.5187    6.2268   -6.1636 C   0  0  0  0  0  0  0  0  0  0  0  0
   -6.1693    6.1205   -3.8414 C   0  0  0  0  0  0  0  0  0  0  0  0
   -5.6440    3.4573   -6.4731 N   0  0  0  0  0  0  0  0  0  0  0  0
   -4.6046    2.5305   -6.6117 C   0  0  0  0  0  0  0  0  0  0  0  0
   -3.8451    2.1409   -5.6525 O   0  0  0  0  0  0  0  0  0  0  0  0
   -4.2454    1.8623   -7.9243 C   0  0  0  0  0  0  0  0  0  0  0  0
   -3.2805    0.7383   -7.5949 C   0  0  0  0  0  0  0  0  0  0  0  0
   -2.7972   -0.0436   -8.7658 C   0  0  0  0  0  0  0  0  0  0  0  0
   -1.8773   -1.1344   -8.1823 C   0  0  0  0  0  0  0  0  0  0  0  0
   -1.3038   -2.0248   -9.2339 C   0  0  0  0  0  0  0  0  0  0  0  0
   -0.4609   -3.0577   -8.6835 N   0  0  0  0  0  0  0  0  0  0  0  0
    0.9345   -3.0665   -8.4041 C   0  0  0  0  0  0  0  0  0  0  0  0
    1.7065   -2.0793   -8.6120 O   0  0  0  0  0  0  0  0  0  0  0  0
    1.3198   -4.3710   -7.8518 C   0  0  0  0  0  0  0  0  0  0  0  0
    0.2130   -5.1414   -7.7900 C   0  0  0  0  0  0  0  0  0  0  0  0
   -0.9086   -4.3627   -8.2965 C   0  0  0  0  0  0  0  0  0  0  0  0
   -2.1309   -4.7086   -8.4111 O   0  0  0  0  0  0  0  0  0  0  0  0
    2.0564   -4.1242    5.8521 H   0  0  0  0  0  0  0  0  0  0  0  0
    1.9460   -3.0819    7.2712 H   0  0  0  0  0  0  0  0  0  0  0  0
    1.3851   -4.7723    7.3477 H   0  0  0  0  0  0  0  0  0  0  0  0
   -0.2009   -2.4418    6.4879 H   0  0  0  0  0  0  0  0  0  0  0  0
   -0.7043   -4.0924    6.9741 H   0  0  0  0  0  0  0  0  0  0  0  0
   -1.4562   -3.7374    4.8117 H   0  0  0  0  0  0  0  0  0  0  0  0
   -0.7748   -5.9835    4.1901 H   0  0  0  0  0  0  0  0  0  0  0  0
    0.9091   -5.6853    4.6989 H   0  0  0  0  0  0  0  0  0  0  0  0
   -0.3762   -5.8089    5.8778 H   0  0  0  0  0  0  0  0  0  0  0  0
    1.4706   -3.2871    4.1022 H   0  0  0  0  0  0  0  0  0  0  0  0
    0.8971   -2.3260    2.1081 H   0  0  0  0  0  0  0  0  0  0  0  0
    0.5531   -5.3371    2.3669 H   0  0  0  0  0  0  0  0  0  0  0  0
    1.9581   -4.3091    2.2181 H   0  0  0  0  0  0  0  0  0  0  0  0
    1.1034   -3.7813   -2.4001 H   0  0  0  0  0  0  0  0  0  0  0  0
    0.5117   -5.4317   -1.9817 H   0  0  0  0  0  0  0  0  0  0  0  0
    2.4068   -6.4287   -2.6846 H   0  0  0  0  0  0  0  0  0  0  0  0
    2.7807   -4.9840   -3.6113 H   0  0  0  0  0  0  0  0  0  0  0  0
    4.1709   -6.0418   -1.3505 H   0  0  0  0  0  0  0  0  0  0  0  0
    4.5685   -4.4939   -2.1274 H   0  0  0  0  0  0  0  0  0  0  0  0
    3.4687   -4.9164    0.4456 H   0  0  0  0  0  0  0  0  0  0  0  0
    4.8250   -3.2858    0.1213 H   0  0  0  0  0  0  0  0  0  0  0  0
    5.0106   -2.4844   -2.0029 H   0  0  0  0  0  0  0  0  0  0  0  0
    2.0776   -1.5371   -2.0276 H   0  0  0  0  0  0  0  0  0  0  0  0
    2.9805   -2.5856   -3.2815 H   0  0  0  0  0  0  0  0  0  0  0  0
    3.3959   -0.9107   -3.0106 H   0  0  0  0  0  0  0  0  0  0  0  0
    5.5515   -0.1762   -2.7402 H   0  0  0  0  0  0  0  0  0  0  0  0
    5.0933    1.6538   -0.4148 H   0  0  0  0  0  0  0  0  0  0  0  0
    4.9602    1.7216   -3.3878 H   0  0  0  0  0  0  0  0  0  0  0  0
    4.2309    2.9739   -2.2546 H   0  0  0  0  0  0  0  0  0  0  0  0
    5.9341    3.0945   -2.7957 H   0  0  0  0  0  0  0  0  0  0  0  0
    7.4967    1.4004   -2.3157 H   0  0  0  0  0  0  0  0  0  0  0  0
    9.6367    2.2744   -1.0162 H   0  0  0  0  0  0  0  0  0  0  0  0
   10.6106    4.4212   -0.3482 H   0  0  0  0  0  0  0  0  0  0  0  0
    9.1102    6.2641    0.1456 H   0  0  0  0  0  0  0  0  0  0  0  0
    6.7011    6.0947    0.0154 H   0  0  0  0  0  0  0  0  0  0  0  0
    5.7022    3.9355   -0.6400 H   0  0  0  0  0  0  0  0  0  0  0  0
    7.2610    0.6497    0.4532 H   0  0  0  0  0  0  0  0  0  0  0  0
    5.1352   -2.1138    1.7014 H   0  0  0  0  0  0  0  0  0  0  0  0
    3.7340   -1.8963    2.7780 H   0  0  0  0  0  0  0  0  0  0  0  0
    4.2110   -3.5395    2.2820 H   0  0  0  0  0  0  0  0  0  0  0  0
   -2.0351   -1.5554    0.7653 H   0  0  0  0  0  0  0  0  0  0  0  0
   -0.6222   -0.7702    1.5341 H   0  0  0  0  0  0  0  0  0  0  0  0
   -0.4054   -1.8531    0.1693 H   0  0  0  0  0  0  0  0  0  0  0  0
    2.3275   -1.7405    4.6868 H   0  0  0  0  0  0  0  0  0  0  0  0
    1.4698   -0.5883    5.6922 H   0  0  0  0  0  0  0  0  0  0  0  0
    1.7277   -0.1677    3.9712 H   0  0  0  0  0  0  0  0  0  0  0  0
   -2.0715    0.8606    3.9575 H   0  0  0  0  0  0  0  0  0  0  0  0
   -1.1201    0.3036    6.7627 H   0  0  0  0  0  0  0  0  0  0  0  0
   -2.0609    2.4264    7.2587 H   0  0  0  0  0  0  0  0  0  0  0  0
   -3.3043    2.2029    5.9506 H   0  0  0  0  0  0  0  0  0  0  0  0
   -1.7161    2.8161    5.4715 H   0  0  0  0  0  0  0  0  0  0  0  0
   -2.9555   -1.1601    6.3627 H   0  0  0  0  0  0  0  0  0  0  0  0
   -3.6236   -0.0663    5.0834 H   0  0  0  0  0  0  0  0  0  0  0  0
   -3.8753    0.3774    6.7771 H   0  0  0  0  0  0  0  0  0  0  0  0
    0.1364    1.6345    3.4225 H   0  0  0  0  0  0  0  0  0  0  0  0
    1.7757    3.8254    5.9271 H   0  0  0  0  0  0  0  0  0  0  0  0
    3.1765    1.4723    4.6949 H   0  0  0  0  0  0  0  0  0  0  0  0
    4.7246    3.0260    4.0673 H   0  0  0  0  0  0  0  0  0  0  0  0
    5.1256    3.1887    5.7768 H   0  0  0  0  0  0  0  0  0  0  0  0
    4.0012    4.3780    5.1213 H   0  0  0  0  0  0  0  0  0  0  0  0
    2.6581    1.0380    7.0122 H   0  0  0  0  0  0  0  0  0  0  0  0
    4.3233    1.6001    6.8833 H   0  0  0  0  0  0  0  0  0  0  0  0
    3.1456    2.7696    7.4629 H   0  0  0  0  0  0  0  0  0  0  0  0
    1.9934    5.5795    4.9056 H   0  0  0  0  0  0  0  0  0  0  0  0
    2.8885    5.4754    3.2901 H   0  0  0  0  0  0  0  0  0  0  0  0
    1.1347    5.6530    3.3677 H   0  0  0  0  0  0  0  0  0  0  0  0
    2.2783    4.3561   -0.5480 H   0  0  0  0  0  0  0  0  0  0  0  0
    2.5438    2.5920   -0.1272 H   0  0  0  0  0  0  0  0  0  0  0  0
    0.2350    5.2406   -0.9186 H   0  0  0  0  0  0  0  0  0  0  0  0
   -2.0268    4.9412   -1.5898 H   0  0  0  0  0  0  0  0  0  0  0  0
   -1.8342    0.7851   -0.5586 H   0  0  0  0  0  0  0  0  0  0  0  0
    0.4766    1.1268    0.1111 H   0  0  0  0  0  0  0  0  0  0  0  0
   -3.8469    3.6135   -2.0938 H   0  0  0  0  0  0  0  0  0  0  0  0
   -6.0382    0.9786   -2.6308 H   0  0  0  0  0  0  0  0  0  0  0  0
   -6.5332    2.9327   -0.2577 H   0  0  0  0  0  0  0  0  0  0  0  0
   -7.8073    2.1456   -1.2007 H   0  0  0  0  0  0  0  0  0  0  0  0
   -7.1331   -0.0791   -0.4241 H   0  0  0  0  0  0  0  0  0  0  0  0
   -5.8292    0.5980    0.5794 H   0  0  0  0  0  0  0  0  0  0  0  0
   -7.4805    2.0423    1.7786 H   0  0  0  0  0  0  0  0  0  0  0  0
   -8.7875    1.3842    0.7877 H   0  0  0  0  0  0  0  0  0  0  0  0
   -8.8054   -0.4458    2.2332 H   0  0  0  0  0  0  0  0  0  0  0  0
   -7.6447   -1.5643    4.5771 H   0  0  0  0  0  0  0  0  0  0  0  0
   -6.3397   -2.4021    3.6221 H   0  0  0  0  0  0  0  0  0  0  0  0
   -5.8031    4.0305   -2.3303 H   0  0  0  0  0  0  0  0  0  0  0  0
   -7.1065    4.2409   -5.2808 H   0  0  0  0  0  0  0  0  0  0  0  0
   -4.3257    5.3814   -4.5469 H   0  0  0  0  0  0  0  0  0  0  0  0
   -4.6588    6.9531   -6.2169 H   0  0  0  0  0  0  0  0  0  0  0  0
   -5.6065    5.6148   -7.0794 H   0  0  0  0  0  0  0  0  0  0  0  0
   -6.4361    6.8439   -6.1227 H   0  0  0  0  0  0  0  0  0  0  0  0
   -7.0640    5.5445   -3.5899 H   0  0  0  0  0  0  0  0  0  0  0  0
   -6.4174    7.1544   -4.1886 H   0  0  0  0  0  0  0  0  0  0  0  0
   -5.5812    6.2826   -2.9183 H   0  0  0  0  0  0  0  0  0  0  0  0
   -6.1917    3.7044   -7.3319 H   0  0  0  0  0  0  0  0  0  0  0  0
   -3.7522    2.6169   -8.5676 H   0  0  0  0  0  0  0  0  0  0  0  0
   -5.1153    1.4732   -8.4490 H   0  0  0  0  0  0  0  0  0  0  0  0
   -3.7558    0.0157   -6.8939 H   0  0  0  0  0  0  0  0  0  0  0  0
   -2.4108    1.1465   -7.0570 H   0  0  0  0  0  0  0  0  0  0  0  0
   -3.5907   -0.5725   -9.3129 H   0  0  0  0  0  0  0  0  0  0  0  0
   -2.1283    0.5318   -9.4645 H   0  0  0  0  0  0  0  0  0  0  0  0
   -2.4814   -1.7289   -7.4750 H   0  0  0  0  0  0  0  0  0  0  0  0
   -1.0581   -0.6522   -7.6136 H   0  0  0  0  0  0  0  0  0  0  0  0
   -2.1276   -2.5520   -9.7901 H   0  0  0  0  0  0  0  0  0  0  0  0
   -0.7134   -1.4786  -10.0017 H   0  0  0  0  0  0  0  0  0  0  0  0
    2.3259   -4.6924   -7.5370 H   0  0  0  0  0  0  0  0  0  0  0  0
    0.1526   -6.1694   -7.4274 H   0  0  0  0  0  0  0  0  0  0  0  0
  1  2  1  0
  2  3  1  0
  3  4  1  0
  3  5  1  0
  5  6  1  0
  6  7  1  0
  7  8  1  0
  8  9  2  0
  8 10  1  0
 10 11  1  0
 11 12  1  0
 12 13  1  0
 13 14  1  0
 14 15  1  0
 15 16  1  0
 16 17  1  0
 16 18  1  0
 18 19  2  0
 18 20  1  0
 20 21  1  0
 21 22  1  0
 21 23  1  0
 23 24  1  0
 24 25  2  0
 25 26  1  0
 26 27  2  0
 27 28  1  0
 28 29  2  0
 23 30  1  0
 15 31  1  0
 31 32  1  0
  6 33  1  0
 33 34  1  0
  5 35  1  0
 35 36  1  0
 35 37  1  0
 37 38  2  0
 37 39  1  0
 39 40  1  0
 40 41  1  0
 40 42  1  0
 39 43  1  0
 43 44  1  0
 44 45  2  0
 44 46  1  0
 46 47  1  0
 47 48  1  0
 47 49  1  0
 46 50  1  0
 50 51  1  0
 50 52  1  0
 52 53  2  0
 52 54  1  0
 54 55  1  0
 55 56  1  0
 56 57  1  0
 57 58  2  0
 58 59  1  0
 59 60  2  0
 60 61  1  0
 59 62  1  0
 62 63  1  0
 63 64  2  0
 63 65  1  0
 65 66  1  0
 66 67  1  0
 67 68  1  0
 68 69  1  0
 69 70  1  0
 70 71  2  0
 70 72  1  0
 65 73  1  0
 73 74  1  0
 74 75  2  0
 74 76  1  0
 76 77  1  0
 77 78  1  0
 77 79  1  0
 76 80  1  0
 80 81  1  0
 81 82  2  0
 81 83  1  0
 83 84  1  0
 84 85  1  0
 85 86  1  0
 86 87  1  0
 87 88  1  0
 88 89  1  0
 89 90  2  0
 89 91  1  0
 91 92  2  0
 92 93  1  0
 93 94  2  0
 14 10  1  0
 29 24  1  0
 61 56  2  0
 93 88  1  0
  1 95  1  0
  1 96  1  0
  1 97  1  0
  2 98  1  0
  2 99  1  0
  3100  1  1
  4101  1  0
  4102  1  0
  4103  1  0
  5104  1  6
  6105  1  6
  7106  1  0
  7107  1  0
 11108  1  0
 11109  1  0
 12110  1  0
 12111  1  0
 13112  1  0
 13113  1  0
 14114  1  1
 15115  1  1
 16116  1  6
 17117  1  0
 17118  1  0
 17119  1  0
 20120  1  0
 21121  1  1
 22122  1  0
 22123  1  0
 22124  1  0
 23125  1  6
 25126  1  0
 26127  1  0
 27128  1  0
 28129  1  0
 29130  1  0
 30131  1  0
 32132  1  0
 32133  1  0
 32134  1  0
 34135  1  0
 34136  1  0
 34137  1  0
 36138  1  0
 36139  1  0
 36140  1  0
 39141  1  6
 40142  1  0
 41143  1  0
 41144  1  0
 41145  1  0
 42146  1  0
 42147  1  0
 42148  1  0
 43149  1  0
 46150  1  1
 47151  1  0
 48152  1  0
 48153  1  0
 48154  1  0
 49155  1  0
 49156  1  0
 49157  1  0
 51158  1  0
 51159  1  0
 51160  1  0
 55161  1  0
 55162  1  0
 57163  1  0
 58164  1  0
 60165  1  0
 61166  1  0
 62167  1  0
 65168  1  6
 66169  1  0
 66170  1  0
 67171  1  0
 67172  1  0
 68173  1  0
 68174  1  0
 69175  1  0
 72176  1  0
 72177  1  0
 73178  1  0
 76179  1  6
 77180  1  0
 78181  1  0
 78182  1  0
 78183  1  0
 79184  1  0
 79185  1  0
 79186  1  0
 80187  1  0
 83188  1  0
 83189  1  0
 84190  1  0
 84191  1  0
 85192  1  0
 85193  1  0
 86194  1  0
 86195  1  0
 87196  1  0
 87197  1  0
 91198  1  0
 92199  1  0
M  END
$$$$

     RDKit          3D

199202  0  0  0  0  0  0  0  0999 V2000
   -1.5453   -6.2087   -2.9282 C   0  0  0  0  0  0  0  0  0  0  0  0
   -0.5575   -5.5910   -3.8565 C   0  0  0  0  0  0  0  0  0  0  0  0
   -0.0986   -4.2357   -3.7931 C   0  0  2  0  0  0  0  0  0  0  0  0
    0.9254   -3.9913   -4.9305 C   0  0  0  0  0  0  0  0  0  0  0  0
    0.4009   -3.5567   -2.5384 C   0  0  1  0  0  0  0  0  0  0  0  0
   -0.6561   -3.4166   -1.5187 C   0  0  1  0  0  0  0  0  0  0  0  0
   -0.2584   -2.8762   -0.1829 C   0  0  0  0  0  0  0  0  0  0  0  0
    0.3315   -1.5379   -0.2155 C   0  0  0  0  0  0  0  0  0  0  0  0
    0.4660   -0.8429   -1.2655 O   0  0  0  0  0  0  0  0  0  0  0  0
    0.7908   -0.9962    1.0430 N   0  0  0  0  0  0  0  0  0  0  0  0
    1.4593    0.2915    1.1001 C   0  0  0  0  0  0  0  0  0  0  0  0
    2.3112    0.1148    2.3466 C   0  0  0  0  0  0  0  0  0  0  0  0
    2.1602   -1.3273    2.7824 C   0  0  0  0  0  0  0  0  0  0  0  0
    0.6959   -1.6273    2.3194 C   0  0  1  0  0  0  0  0  0  0  0  0
   -0.2585   -1.1085    3.3461 C   0  0  1  0  0  0  0  0  0  0  0  0
   -0.6848   -2.1729    4.3225 C   0  0  1  0  0  0  0  0  0  0  0  0
    0.5111   -2.8376    5.0210 C   0  0  0  0  0  0  0  0  0  0  0  0
   -1.5976   -1.6410    5.3379 C   0  0  0  0  0  0  0  0  0  0  0  0
   -1.2045   -1.7572    6.5564 O   0  0  0  0  0  0  0  0  0  0  0  0
   -2.8584   -1.0159    5.1517 N   0  0  0  0  0  0  0  0  0  0  0  0
   -3.5489   -0.5920    6.3517 C   0  0  2  0  0  0  0  0  0  0  0  0
   -4.8896   -1.2997    6.4834 C   0  0  0  0  0  0  0  0  0  0  0  0
   -3.6636    0.8763    6.4606 C   0  0  1  0  0  0  0  0  0  0  0  0
   -4.5988    1.5699    5.5403 C   0  0  0  0  0  0  0  0  0  0  0  0
   -5.3176    1.0249    4.5306 C   0  0  0  0  0  0  0  0  0  0  0  0
   -6.1422    1.8413    3.7957 C   0  0  0  0  0  0  0  0  0  0  0  0
   -6.2878    3.1905    4.0238 C   0  0  0  0  0  0  0  0  0  0  0  0
   -5.5685    3.7477    5.0385 C   0  0  0  0  0  0  0  0  0  0  0  0
   -4.7438    2.9401    5.7725 C   0  0  0  0  0  0  0  0  0  0  0  0
   -4.2250    1.2032    7.7637 O   0  0  0  0  0  0  0  0  0  0  0  0
   -0.0003    0.1222    3.7675 O   0  0  0  0  0  0  0  0  0  0  0  0
   -0.8345    1.1600    3.5639 C   0  0  0  0  0  0  0  0  0  0  0  0
   -1.6105   -2.5574   -2.0388 O   0  0  0  0  0  0  0  0  0  0  0  0
   -2.8768   -2.9843   -2.2061 C   0  0  0  0  0  0  0  0  0  0  0  0
    1.5997   -4.3133   -2.0736 N   0  0  0  0  0  0  0  0  0  0  0  0
    1.4729   -5.5458   -1.3387 C   0  0  0  0  0  0  0  0  0  0  0  0
    2.8166   -3.6602   -2.3539 C   0  0  0  0  0  0  0  0  0  0  0  0
    2.6586   -2.5005   -2.9424 O   0  0  0  0  0  0  0  0  0  0  0  0
    4.1939   -4.0377   -2.1054 C   0  0  1  0  0  0  0  0  0  0  0  0
    4.7780   -5.1719   -2.8654 C   0  0  0  0  0  0  0  0  0  0  0  0
    4.7525   -4.9906   -4.3755 C   0  0  0  0  0  0  0  0  0  0  0  0
    4.2899   -6.5497   -2.5279 C   0  0  0  0  0  0  0  0  0  0  0  0
    5.0841   -2.8888   -2.3919 N   0  0  0  0  0  0  0  0  0  0  0  0
    5.5323   -2.1255   -1.2971 C   0  0  0  0  0  0  0  0  0  0  0  0
    5.1779   -2.4754   -0.1286 O   0  0  0  0  0  0  0  0  0  0  0  0
    6.3807   -0.9253   -1.3817 C   0  0  1  0  0  0  0  0  0  0  0  0
    7.1949   -0.5740   -0.2023 C   0  0  0  0  0  0  0  0  0  0  0  0
    6.3350   -0.2883    1.0253 C   0  0  0  0  0  0  0  0  0  0  0  0
    8.2117   -1.6306    0.1670 C   0  0  0  0  0  0  0  0  0  0  0  0
    7.0035   -0.6304   -2.6448 N   0  0  0  0  0  0  0  0  0  0  0  0
    8.2584   -1.1897   -3.0910 C   0  0  0  0  0  0  0  0  0  0  0  0
    6.2445    0.2990   -3.4550 C   0  0  0  0  0  0  0  0  0  0  0  0
    5.0667    0.4575   -3.0622 O   0  0  0  0  0  0  0  0  0  0  0  0
    6.6796    0.9802   -4.5433 O   0  0  0  0  0  0  0  0  0  0  0  0
    5.8026    1.8265   -5.3146 C   0  0  0  0  0  0  0  0  0  0  0  0
    4.9881    2.6882   -4.4586 C   0  0  0  0  0  0  0  0  0  0  0  0
    3.6545    2.2742   -4.2995 C   0  0  0  0  0  0  0  0  0  0  0  0
    2.7568    2.8814   -3.4764 C   0  0  0  0  0  0  0  0  0  0  0  0
    3.1494    3.9785   -2.7414 C   0  0  0  0  0  0  0  0  0  0  0  0
    4.4572    4.3875   -2.9018 C   0  0  0  0  0  0  0  0  0  0  0  0
    5.3685    3.7731   -3.7313 C   0  0  0  0  0  0  0  0  0  0  0  0
    2.2787    4.6629   -1.8488 N   0  0  0  0  0  0  0  0  0  0  0  0
    0.9174    4.5414   -1.7108 C   0  0  0  0  0  0  0  0  0  0  0  0
    0.3449    3.6754   -2.5375 O   0  0  0  0  0  0  0  0  0  0  0  0
   -0.0373    5.1631   -0.8356 C   0  0  1  0  0  0  0  0  0  0  0  0
   -0.1092    6.6540   -0.7105 C   0  0  0  0  0  0  0  0  0  0  0  0
    1.2041    7.2620   -0.2110 C   0  0  0  0  0  0  0  0  0  0  0  0
    1.6140    6.6395    1.0846 C   0  0  0  0  0  0  0  0  0  0  0  0
    2.8263    7.1816    1.6797 N   0  0  0  0  0  0  0  0  0  0  0  0
    3.1995    6.5496    2.9237 C   0  0  0  0  0  0  0  0  0  0  0  0
    2.4006    5.6113    3.2881 O   0  0  0  0  0  0  0  0  0  0  0  0
    4.3188    6.9066    3.6813 N   0  0  0  0  0  0  0  0  0  0  0  0
   -1.3554    4.5300   -1.0183 N   0  0  0  0  0  0  0  0  0  0  0  0
   -2.5511    4.8882   -0.4435 C   0  0  0  0  0  0  0  0  0  0  0  0
   -2.6174    5.9027    0.3232 O   0  0  0  0  0  0  0  0  0  0  0  0
   -3.8580    4.1716   -0.6336 C   0  0  1  0  0  0  0  0  0  0  0  0
   -4.8361    4.9322   -1.4943 C   0  0  0  0  0  0  0  0  0  0  0  0
   -6.0859    4.0432   -1.5783 C   0  0  0  0  0  0  0  0  0  0  0  0
   -4.3538    5.1627   -2.8832 C   0  0  0  0  0  0  0  0  0  0  0  0
   -3.6364    2.8177   -1.0825 N   0  0  0  0  0  0  0  0  0  0  0  0
   -3.8701    1.7461   -0.1432 C   0  0  0  0  0  0  0  0  0  0  0  0
   -4.2777    2.0818    1.0025 O   0  0  0  0  0  0  0  0  0  0  0  0
   -3.6230    0.3533   -0.5432 C   0  0  0  0  0  0  0  0  0  0  0  0
   -3.8729   -0.6579    0.5059 C   0  0  0  0  0  0  0  0  0  0  0  0
   -5.3292   -0.7084    0.8979 C   0  0  0  0  0  0  0  0  0  0  0  0
   -6.1442   -1.1035   -0.3218 C   0  0  0  0  0  0  0  0  0  0  0  0
   -7.6238   -1.1943    0.0305 C   0  0  0  0  0  0  0  0  0  0  0  0
   -8.3779   -1.5959   -1.1408 N   0  0  0  0  0  0  0  0  0  0  0  0
   -8.9525   -0.7173   -2.1123 C   0  0  0  0  0  0  0  0  0  0  0  0
   -8.8947    0.5450   -2.0891 O   0  0  0  0  0  0  0  0  0  0  0  0
   -9.6141   -1.5311   -3.1262 C   0  0  0  0  0  0  0  0  0  0  0  0
   -9.4542   -2.8250   -2.7973 C   0  0  0  0  0  0  0  0  0  0  0  0
   -8.6896   -2.9148   -1.5640 C   0  0  0  0  0  0  0  0  0  0  0  0
   -8.3523   -3.9630   -0.9560 O   0  0  0  0  0  0  0  0  0  0  0  0
   -2.4723   -5.6913   -2.7458 H   0  0  0  0  0  0  0  0  0  0  0  0
   -1.9290   -7.1868   -3.4379 H   0  0  0  0  0  0  0  0  0  0  0  0
   -1.0880   -6.6761   -2.0032 H   0  0  0  0  0  0  0  0  0  0  0  0
    0.2785   -6.3538   -4.0623 H   0  0  0  0  0  0  0  0  0  0  0  0
   -1.0965   -5.6874   -4.8898 H   0  0  0  0  0  0  0  0  0  0  0  0
   -0.9656   -3.5536   -4.1412 H   0  0  0  0  0  0  0  0  0  0  0  0
    1.8920   -4.4652   -4.7038 H   0  0  0  0  0  0  0  0  0  0  0  0
    0.4939   -4.5625   -5.7992 H   0  0  0  0  0  0  0  0  0  0  0  0
    0.9818   -2.9250   -5.1919 H   0  0  0  0  0  0  0  0  0  0  0  0
    0.7656   -2.5888   -2.8904 H   0  0  0  0  0  0  0  0  0  0  0  0
   -1.1343   -4.4227   -1.2765 H   0  0  0  0  0  0  0  0  0  0  0  0
   -1.2209   -2.7828    0.4075 H   0  0  0  0  0  0  0  0  0  0  0  0
    0.3475   -3.5815    0.4177 H   0  0  0  0  0  0  0  0  0  0  0  0
    2.1070    0.4370    0.1870 H   0  0  0  0  0  0  0  0  0  0  0  0
    0.7664    1.1313    1.1427 H   0  0  0  0  0  0  0  0  0  0  0  0
    2.0691    0.8144    3.1540 H   0  0  0  0  0  0  0  0  0  0  0  0
    3.3668    0.2745    2.0789 H   0  0  0  0  0  0  0  0  0  0  0  0
    2.8074   -2.0342    2.2570 H   0  0  0  0  0  0  0  0  0  0  0  0
    2.2903   -1.4108    3.8486 H   0  0  0  0  0  0  0  0  0  0  0  0
    0.6039   -2.7341    2.1936 H   0  0  0  0  0  0  0  0  0  0  0  0
   -1.2503   -0.9728    2.7319 H   0  0  0  0  0  0  0  0  0  0  0  0
   -1.1962   -2.9743    3.7744 H   0  0  0  0  0  0  0  0  0  0  0  0
    0.1046   -3.6613    5.7002 H   0  0  0  0  0  0  0  0  0  0  0  0
    1.1528   -3.4016    4.3241 H   0  0  0  0  0  0  0  0  0  0  0  0
    1.0127   -2.1465    5.7075 H   0  0  0  0  0  0  0  0  0  0  0  0
   -3.1843   -0.9154    4.1846 H   0  0  0  0  0  0  0  0  0  0  0  0
   -2.9747   -0.9141    7.2772 H   0  0  0  0  0  0  0  0  0  0  0  0
   -5.0164   -1.9627    5.6254 H   0  0  0  0  0  0  0  0  0  0  0  0
   -4.9242   -1.9613    7.3979 H   0  0  0  0  0  0  0  0  0  0  0  0
   -5.6923   -0.5545    6.6343 H   0  0  0  0  0  0  0  0  0  0  0  0
   -2.6773    1.3928    6.3748 H   0  0  0  0  0  0  0  0  0  0  0  0
   -5.2844   -0.0002    4.2870 H   0  0  0  0  0  0  0  0  0  0  0  0
   -6.7379    1.4205    2.9726 H   0  0  0  0  0  0  0  0  0  0  0  0
   -6.9554    3.7798    3.4014 H   0  0  0  0  0  0  0  0  0  0  0  0
   -5.6528    4.8233    5.2607 H   0  0  0  0  0  0  0  0  0  0  0  0
   -4.1770    3.4330    6.5847 H   0  0  0  0  0  0  0  0  0  0  0  0
   -3.4854    1.5569    8.3205 H   0  0  0  0  0  0  0  0  0  0  0  0
   -1.0648    1.3659    2.5008 H   0  0  0  0  0  0  0  0  0  0  0  0
   -1.7391    1.2452    4.1666 H   0  0  0  0  0  0  0  0  0  0  0  0
   -0.2368    2.0963    3.8622 H   0  0  0  0  0  0  0  0  0  0  0  0
   -3.3143   -3.3865   -1.2687 H   0  0  0  0  0  0  0  0  0  0  0  0
   -3.1118   -3.5394   -3.1158 H   0  0  0  0  0  0  0  0  0  0  0  0
   -3.4956   -2.0154   -2.3471 H   0  0  0  0  0  0  0  0  0  0  0  0
    0.4704   -5.5774   -0.7960 H   0  0  0  0  0  0  0  0  0  0  0  0
    1.4432   -6.4185   -2.0038 H   0  0  0  0  0  0  0  0  0  0  0  0
    2.2752   -5.6510   -0.5671 H   0  0  0  0  0  0  0  0  0  0  0  0
    4.2866   -4.2318   -1.0235 H   0  0  0  0  0  0  0  0  0  0  0  0
    5.9093   -5.2211   -2.6185 H   0  0  0  0  0  0  0  0  0  0  0  0
    4.6025   -3.9421   -4.6576 H   0  0  0  0  0  0  0  0  0  0  0  0
    5.7334   -5.2934   -4.7702 H   0  0  0  0  0  0  0  0  0  0  0  0
    4.0270   -5.6759   -4.8550 H   0  0  0  0  0  0  0  0  0  0  0  0
    5.1028   -7.3188   -2.7700 H   0  0  0  0  0  0  0  0  0  0  0  0
    4.0906   -6.7367   -1.4710 H   0  0  0  0  0  0  0  0  0  0  0  0
    3.4464   -6.8626   -3.1784 H   0  0  0  0  0  0  0  0  0  0  0  0
    5.3835   -2.6446   -3.3554 H   0  0  0  0  0  0  0  0  0  0  0  0
    5.5178   -0.1093   -1.3783 H   0  0  0  0  0  0  0  0  0  0  0  0
    7.7628    0.3491   -0.4111 H   0  0  0  0  0  0  0  0  0  0  0  0
    5.2614   -0.1792    0.7124 H   0  0  0  0  0  0  0  0  0  0  0  0
    6.3901   -1.1470    1.6979 H   0  0  0  0  0  0  0  0  0  0  0  0
    6.6321    0.6561    1.4886 H   0  0  0  0  0  0  0  0  0  0  0  0
    8.1888   -1.7710    1.2781 H   0  0  0  0  0  0  0  0  0  0  0  0
    9.2467   -1.3486   -0.1026 H   0  0  0  0  0  0  0  0  0  0  0  0
    8.0149   -2.6052   -0.3464 H   0  0  0  0  0  0  0  0  0  0  0  0
    8.2939   -2.2898   -2.8726 H   0  0  0  0  0  0  0  0  0  0  0  0
    9.0898   -0.6630   -2.5840 H   0  0  0  0  0  0  0  0  0  0  0  0
    8.3516   -1.0156   -4.1745 H   0  0  0  0  0  0  0  0  0  0  0  0
    5.2080    1.1921   -5.9681 H   0  0  0  0  0  0  0  0  0  0  0  0
    6.4650    2.4839   -5.9474 H   0  0  0  0  0  0  0  0  0  0  0  0
    3.2936    1.4189   -4.8732 H   0  0  0  0  0  0  0  0  0  0  0  0
    1.7709    2.4363   -3.4230 H   0  0  0  0  0  0  0  0  0  0  0  0
    4.8491    5.2507   -2.3551 H   0  0  0  0  0  0  0  0  0  0  0  0
    6.3849    4.1146   -3.8263 H   0  0  0  0  0  0  0  0  0  0  0  0
    2.7710    5.3397   -1.1965 H   0  0  0  0  0  0  0  0  0  0  0  0
    0.1983    4.8575    0.2557 H   0  0  0  0  0  0  0  0  0  0  0  0
   -0.7791    6.8382    0.2065 H   0  0  0  0  0  0  0  0  0  0  0  0
   -0.5360    7.2002   -1.5488 H   0  0  0  0  0  0  0  0  0  0  0  0
    0.9306    8.3542    0.1082 H   0  0  0  0  0  0  0  0  0  0  0  0
    1.9786    7.3478   -0.9191 H   0  0  0  0  0  0  0  0  0  0  0  0
    1.8850    5.5421    0.9315 H   0  0  0  0  0  0  0  0  0  0  0  0
    0.7992    6.5857    1.8377 H   0  0  0  0  0  0  0  0  0  0  0  0
    3.3899    7.9522    1.2722 H   0  0  0  0  0  0  0  0  0  0  0  0
    5.2919    6.5599    3.5102 H   0  0  0  0  0  0  0  0  0  0  0  0
    4.1318    7.5748    4.4927 H   0  0  0  0  0  0  0  0  0  0  0  0
   -1.3811    3.6752   -1.6803 H   0  0  0  0  0  0  0  0  0  0  0  0
   -4.2872    4.1192    0.3721 H   0  0  0  0  0  0  0  0  0  0  0  0
   -5.1905    5.8518   -0.9963 H   0  0  0  0  0  0  0  0  0  0  0  0
   -6.9598    4.5892   -1.9868 H   0  0  0  0  0  0  0  0  0  0  0  0
   -5.8952    3.2096   -2.2787 H   0  0  0  0  0  0  0  0  0  0  0  0
   -6.3752    3.6794   -0.5652 H   0  0  0  0  0  0  0  0  0  0  0  0
   -3.2398    5.1471   -2.9715 H   0  0  0  0  0  0  0  0  0  0  0  0
   -4.8214    4.4778   -3.6325 H   0  0  0  0  0  0  0  0  0  0  0  0
   -4.6695    6.1678   -3.2205 H   0  0  0  0  0  0  0  0  0  0  0  0
   -3.3176    2.5744   -2.0732 H   0  0  0  0  0  0  0  0  0  0  0  0
   -4.1400    0.1420   -1.5079 H   0  0  0  0  0  0  0  0  0  0  0  0
   -2.5286    0.3113   -0.8223 H   0  0  0  0  0  0  0  0  0  0  0  0
   -3.2636   -0.3221    1.4114 H   0  0  0  0  0  0  0  0  0  0  0  0
   -3.4891   -1.6605    0.2529 H   0  0  0  0  0  0  0  0  0  0  0  0
   -5.4758   -1.4450    1.7305 H   0  0  0  0  0  0  0  0  0  0  0  0
   -5.6633    0.3123    1.1702 H   0  0  0  0  0  0  0  0  0  0  0  0
   -6.0650   -0.3714   -1.1276 H   0  0  0  0  0  0  0  0  0  0  0  0
   -5.7926   -2.0737   -0.6757 H   0  0  0  0  0  0  0  0  0  0  0  0
   -7.7854   -1.9119    0.8505 H   0  0  0  0  0  0  0  0  0  0  0  0
   -8.0145   -0.2135    0.3869 H   0  0  0  0  0  0  0  0  0  0  0  0
  -10.1346   -1.1379   -3.9814 H   0  0  0  0  0  0  0  0  0  0  0  0
   -9.8559   -3.6477   -3.3832 H   0  0  0  0  0  0  0  0  0  0  0  0
  1  2  1  0
  2  3  1  0
  3  4  1  0
  3  5  1  0
  5  6  1  0
  6  7  1  0
  7  8  1  0
  8  9  2  0
  8 10  1  0
 10 11  1  0
 11 12  1  0
 12 13  1  0
 13 14  1  0
 14 15  1  0
 15 16  1  0
 16 17  1  0
 16 18  1  0
 18 19  2  0
 18 20  1  0
 20 21  1  0
 21 22  1  0
 21 23  1  0
 23 24  1  0
 24 25  2  0
 25 26  1  0
 26 27  2  0
 27 28  1  0
 28 29  2  0
 23 30  1  0
 15 31  1  0
 31 32  1  0
  6 33  1  0
 33 34  1  0
  5 35  1  0
 35 36  1  0
 35 37  1  0
 37 38  2  0
 37 39  1  0
 39 40  1  0
 40 41  1  0
 40 42  1  0
 39 43  1  0
 43 44  1  0
 44 45  2  0
 44 46  1  0
 46 47  1  0
 47 48  1  0
 47 49  1  0
 46 50  1  0
 50 51  1  0
 50 52  1  0
 52 53  2  0
 52 54  1  0
 54 55  1  0
 55 56  1  0
 56 57  1  0
 57 58  2  0
 58 59  1  0
 59 60  2  0
 60 61  1  0
 59 62  1  0
 62 63  1  0
 63 64  2  0
 63 65  1  0
 65 66  1  0
 66 67  1  0
 67 68  1  0
 68 69  1  0
 69 70  1  0
 70 71  2  0
 70 72  1  0
 65 73  1  0
 73 74  1  0
 74 75  2  0
 74 76  1  0
 76 77  1  0
 77 78  1  0
 77 79  1  0
 76 80  1  0
 80 81  1  0
 81 82  2  0
 81 83  1  0
 83 84  1  0
 84 85  1  0
 85 86  1  0
 86 87  1  0
 87 88  1  0
 88 89  1  0
 89 90  2  0
 89 91  1  0
 91 92  2  0
 92 93  1  0
 93 94  2  0
 14 10  1  0
 29 24  1  0
 61 56  2  0
 93 88  1  0
  1 95  1  0
  1 96  1  0
  1 97  1  0
  2 98  1  0
  2 99  1  0
  3100  1  6
  4101  1  0
  4102  1  0
  4103  1  0
  5104  1  6
  6105  1  1
  7106  1  0
  7107  1  0
 11108  1  0
 11109  1  0
 12110  1  0
 12111  1  0
 13112  1  0
 13113  1  0
 14114  1  6
 15115  1  6
 16116  1  6
 17117  1  0
 17118  1  0
 17119  1  0
 20120  1  0
 21121  1  1
 22122  1  0
 22123  1  0
 22124  1  0
 23125  1  1
 25126  1  0
 26127  1  0
 27128  1  0
 28129  1  0
 29130  1  0
 30131  1  0
 32132  1  0
 32133  1  0
 32134  1  0
 34135  1  0
 34136  1  0
 34137  1  0
 36138  1  0
 36139  1  0
 36140  1  0
 39141  1  1
 40142  1  0
 41143  1  0
 41144  1  0
 41145  1  0
 42146  1  0
 42147  1  0
 42148  1  0
 43149  1  0
 46150  1  1
 47151  1  0
 48152  1  0
 48153  1  0
 48154  1  0
 49155  1  0
 49156  1  0
 49157  1  0
 51158  1  0
 51159  1  0
 51160  1  0
 55161  1  0
 55162  1  0
 57163  1  0
 58164  1  0
 60165  1  0
 61166  1  0
 62167  1  0
 65168  1  1
 66169  1  0
 66170  1  0
 67171  1  0
 67172  1  0
 68173  1  0
 68174  1  0
 69175  1  0
 72176  1  0
 72177  1  0
 73178  1  0
 76179  1  1
 77180  1  0
 78181  1  0
 78182  1  0
 78183  1  0
 79184  1  0
 79185  1  0
 79186  1  0
 80187  1  0
 83188  1  0
 83189  1  0
 84190  1  0
 84191  1  0
 85192  1  0
 85193  1  0
 86194  1  0
 86195  1  0
 87196  1  0
 87197  1  0
 91198  1  0
 92199  1  0
M  END
$$$$

     RDKit          3D

199202  0  0  0  0  0  0  0  0999 V2000
   -7.7115   -1.0538    2.4013 C   0  0  0  0  0  0  0  0  0  0  0  0
   -7.8918   -0.3127    1.0966 C   0  0  0  0  0  0  0  0  0  0  0  0
   -7.5373   -1.1908   -0.1144 C   0  0  2  0  0  0  0  0  0  0  0  0
   -8.4582   -2.3855   -0.0136 C   0  0  0  0  0  0  0  0  0  0  0  0
   -6.0903   -1.4923   -0.2218 C   0  0  1  0  0  0  0  0  0  0  0  0
   -5.6984   -2.3539   -1.4401 C   0  0  1  0  0  0  0  0  0  0  0  0
   -4.2580   -2.7224   -1.1927 C   0  0  0  0  0  0  0  0  0  0  0  0
   -3.6468   -3.5935   -2.2165 C   0  0  0  0  0  0  0  0  0  0  0  0
   -4.3150   -4.3231   -3.0121 O   0  0  0  0  0  0  0  0  0  0  0  0
   -2.2373   -3.6662   -2.3729 N   0  0  0  0  0  0  0  0  0  0  0  0
   -1.6000   -4.5962   -3.3132 C   0  0  0  0  0  0  0  0  0  0  0  0
   -0.1510   -4.6533   -2.9617 C   0  0  0  0  0  0  0  0  0  0  0  0
    0.0398   -3.7439   -1.7662 C   0  0  0  0  0  0  0  0  0  0  0  0
   -1.1878   -2.8666   -1.7411 C   0  0  1  0  0  0  0  0  0  0  0  0
   -0.9868   -1.6063   -2.5033 C   0  0  1  0  0  0  0  0  0  0  0  0
    0.0043   -0.6701   -1.9324 C   0  0  1  0  0  0  0  0  0  0  0  0
    0.0568    0.5244   -2.8961 C   0  0  0  0  0  0  0  0  0  0  0  0
   -0.2954   -0.2106   -0.5748 C   0  0  0  0  0  0  0  0  0  0  0  0
   -1.2170   -0.6137    0.1641 O   0  0  0  0  0  0  0  0  0  0  0  0
    0.5517    0.8100   -0.0371 N   0  0  0  0  0  0  0  0  0  0  0  0
    0.3465    1.3641    1.3111 C   0  0  2  0  0  0  0  0  0  0  0  0
   -0.1382    2.8175    1.1544 C   0  0  0  0  0  0  0  0  0  0  0  0
    1.6190    1.4417    2.0686 C   0  0  1  0  0  0  0  0  0  0  0  0
    1.5393    2.0473    3.4081 C   0  0  0  0  0  0  0  0  0  0  0  0
    2.7328    2.1792    4.1105 C   0  0  0  0  0  0  0  0  0  0  0  0
    2.7325    2.7320    5.3952 C   0  0  0  0  0  0  0  0  0  0  0  0
    1.5698    3.1521    5.9846 C   0  0  0  0  0  0  0  0  0  0  0  0
    0.3768    3.0304    5.3053 C   0  0  0  0  0  0  0  0  0  0  0  0
    0.4031    2.4788    4.0331 C   0  0  0  0  0  0  0  0  0  0  0  0
    2.2877    0.2217    2.2131 O   0  0  0  0  0  0  0  0  0  0  0  0
   -0.6370   -1.9876   -3.8258 O   0  0  0  0  0  0  0  0  0  0  0  0
   -1.6119   -1.5698   -4.7162 C   0  0  0  0  0  0  0  0  0  0  0  0
   -6.5629   -3.3731   -1.5822 O   0  0  0  0  0  0  0  0  0  0  0  0
   -7.2871   -3.4816   -2.7330 C   0  0  0  0  0  0  0  0  0  0  0  0
   -5.1700   -0.4098   -0.0067 N   0  0  0  0  0  0  0  0  0  0  0  0
   -4.3774   -0.5457    1.2669 C   0  0  0  0  0  0  0  0  0  0  0  0
   -4.8961    0.7344   -0.7372 C   0  0  0  0  0  0  0  0  0  0  0  0
   -3.8905    1.4521   -0.2452 O   0  0  0  0  0  0  0  0  0  0  0  0
   -5.4453    1.3515   -1.9308 C   0  0  1  0  0  0  0  0  0  0  0  0
   -6.6592    2.2190   -1.4812 C   0  0  0  0  0  0  0  0  0  0  0  0
   -6.2616    3.2783   -0.5078 C   0  0  0  0  0  0  0  0  0  0  0  0
   -7.3994    2.7832   -2.6796 C   0  0  0  0  0  0  0  0  0  0  0  0
   -4.4593    2.3151   -2.4944 N   0  0  0  0  0  0  0  0  0  0  0  0
   -4.3853    2.7272   -3.8160 C   0  0  0  0  0  0  0  0  0  0  0  0
   -5.2608    2.2438   -4.6282 O   0  0  0  0  0  0  0  0  0  0  0  0
   -3.4146    3.6564   -4.3785 C   0  0  1  0  0  0  0  0  0  0  0  0
   -4.0716    5.0461   -4.4208 C   0  0  0  0  0  0  0  0  0  0  0  0
   -4.4855    5.5675   -3.0960 C   0  0  0  0  0  0  0  0  0  0  0  0
   -3.2866    6.0131   -5.2609 C   0  0  0  0  0  0  0  0  0  0  0  0
   -2.1126    3.6991   -3.8219 N   0  0  0  0  0  0  0  0  0  0  0  0
   -1.7249    3.9159   -2.4568 C   0  0  0  0  0  0  0  0  0  0  0  0
   -1.0096    3.5288   -4.7651 C   0  0  0  0  0  0  0  0  0  0  0  0
   -1.2307    3.5118   -6.0053 O   0  0  0  0  0  0  0  0  0  0  0  0
    0.2837    3.3787   -4.3315 O   0  0  0  0  0  0  0  0  0  0  0  0
    1.4396    3.2431   -5.1350 C   0  0  0  0  0  0  0  0  0  0  0  0
    2.6226    2.9169   -4.2875 C   0  0  0  0  0  0  0  0  0  0  0  0
    3.3545    3.7947   -3.5493 C   0  0  0  0  0  0  0  0  0  0  0  0
    4.4255    3.2873   -2.7951 C   0  0  0  0  0  0  0  0  0  0  0  0
    4.7442    1.9544   -2.7866 C   0  0  0  0  0  0  0  0  0  0  0  0
    4.0016    1.0596   -3.5399 C   0  0  0  0  0  0  0  0  0  0  0  0
    2.9582    1.5522   -4.2741 C   0  0  0  0  0  0  0  0  0  0  0  0
    5.7839    1.3636   -2.0115 N   0  0  0  0  0  0  0  0  0  0  0  0
    5.3678    0.7971   -0.7596 C   0  0  0  0  0  0  0  0  0  0  0  0
    4.1542    0.8852   -0.4891 O   0  0  0  0  0  0  0  0  0  0  0  0
    6.2837    0.1303    0.1769 C   0  0  1  0  0  0  0  0  0  0  0  0
    7.1425    1.0783    0.9434 C   0  0  0  0  0  0  0  0  0  0  0  0
    7.9811    1.9187    0.0562 C   0  0  0  0  0  0  0  0  0  0  0  0
    8.8954    2.8375    0.8655 C   0  0  0  0  0  0  0  0  0  0  0  0
    8.1673    3.7266    1.7290 N   0  0  0  0  0  0  0  0  0  0  0  0
    7.2202    4.6851    1.2836 C   0  0  0  0  0  0  0  0  0  0  0  0
    6.9533    4.8199    0.0843 O   0  0  0  0  0  0  0  0  0  0  0  0
    6.5552    5.5162    2.2200 N   0  0  0  0  0  0  0  0  0  0  0  0
    5.4734   -0.6623    1.1584 N   0  0  0  0  0  0  0  0  0  0  0  0
    5.3120   -2.0443    0.9730 C   0  0  0  0  0  0  0  0  0  0  0  0
    5.8738   -2.5434   -0.0650 O   0  0  0  0  0  0  0  0  0  0  0  0
    4.5797   -2.9723    1.8291 C   0  0  1  0  0  0  0  0  0  0  0  0
    5.5539   -4.1142    2.2358 C   0  0  0  0  0  0  0  0  0  0  0  0
    6.0259   -4.8170    0.9752 C   0  0  0  0  0  0  0  0  0  0  0  0
    6.7671   -3.5546    2.9144 C   0  0  0  0  0  0  0  0  0  0  0  0
    4.0233   -2.3859    3.0247 N   0  0  0  0  0  0  0  0  0  0  0  0
    2.7443   -2.8064    3.5073 C   0  0  0  0  0  0  0  0  0  0  0  0
    2.1496   -3.6758    2.8612 O   0  0  0  0  0  0  0  0  0  0  0  0
    2.2555   -2.1602    4.7454 C   0  0  0  0  0  0  0  0  0  0  0  0
    1.0139   -2.7769    5.3175 C   0  0  0  0  0  0  0  0  0  0  0  0
   -0.1904   -2.7421    4.4405 C   0  0  0  0  0  0  0  0  0  0  0  0
   -0.6823   -1.3817    4.0738 C   0  0  0  0  0  0  0  0  0  0  0  0
   -1.1544   -0.5289    5.1985 C   0  0  0  0  0  0  0  0  0  0  0  0
   -2.2800   -1.0305    5.9344 N   0  0  0  0  0  0  0  0  0  0  0  0
   -2.3836   -1.8415    7.0841 C   0  0  0  0  0  0  0  0  0  0  0  0
   -1.4774   -2.3357    7.7727 O   0  0  0  0  0  0  0  0  0  0  0  0
   -3.8126   -2.0490    7.3966 C   0  0  0  0  0  0  0  0  0  0  0  0
   -4.5532   -1.4071    6.4974 C   0  0  0  0  0  0  0  0  0  0  0  0
   -3.6447   -0.7554    5.5628 C   0  0  0  0  0  0  0  0  0  0  0  0
   -4.0228   -0.0517    4.5728 O   0  0  0  0  0  0  0  0  0  0  0  0
   -7.4606   -0.2964    3.1763 H   0  0  0  0  0  0  0  0  0  0  0  0
   -6.8720   -1.7471    2.3404 H   0  0  0  0  0  0  0  0  0  0  0  0
   -8.6387   -1.5431    2.7681 H   0  0  0  0  0  0  0  0  0  0  0  0
   -7.1627    0.5192    1.1187 H   0  0  0  0  0  0  0  0  0  0  0  0
   -8.8937    0.1010    1.0092 H   0  0  0  0  0  0  0  0  0  0  0  0
   -7.8516   -0.6470   -1.0030 H   0  0  0  0  0  0  0  0  0  0  0  0
   -7.9246   -3.3151    0.2201 H   0  0  0  0  0  0  0  0  0  0  0  0
   -9.1328   -2.2017    0.8835 H   0  0  0  0  0  0  0  0  0  0  0  0
   -9.1636   -2.5044   -0.8338 H   0  0  0  0  0  0  0  0  0  0  0  0
   -5.9544   -2.2831    0.6201 H   0  0  0  0  0  0  0  0  0  0  0  0
   -5.6540   -1.6798   -2.3454 H   0  0  0  0  0  0  0  0  0  0  0  0
   -3.6981   -1.7599   -1.2093 H   0  0  0  0  0  0  0  0  0  0  0  0
   -4.1410   -3.1902   -0.1721 H   0  0  0  0  0  0  0  0  0  0  0  0
   -1.8428   -4.4027   -4.3540 H   0  0  0  0  0  0  0  0  0  0  0  0
   -2.0264   -5.6206   -3.0857 H   0  0  0  0  0  0  0  0  0  0  0  0
    0.1938   -5.6977   -2.7325 H   0  0  0  0  0  0  0  0  0  0  0  0
    0.4523   -4.3247   -3.8312 H   0  0  0  0  0  0  0  0  0  0  0  0
    0.9587   -3.1526   -1.9173 H   0  0  0  0  0  0  0  0  0  0  0  0
    0.0921   -4.3974   -0.8699 H   0  0  0  0  0  0  0  0  0  0  0  0
   -1.5052   -2.6702   -0.7224 H   0  0  0  0  0  0  0  0  0  0  0  0
   -1.9503   -1.0650   -2.6395 H   0  0  0  0  0  0  0  0  0  0  0  0
    1.0552   -1.0781   -1.9313 H   0  0  0  0  0  0  0  0  0  0  0  0
   -0.9570    0.9662   -2.9705 H   0  0  0  0  0  0  0  0  0  0  0  0
    0.3347    0.1888   -3.9137 H   0  0  0  0  0  0  0  0  0  0  0  0
    0.7195    1.2703   -2.4696 H   0  0  0  0  0  0  0  0  0  0  0  0
    1.3592    1.2179   -0.5552 H   0  0  0  0  0  0  0  0  0  0  0  0
   -0.4118    0.7879    1.8160 H   0  0  0  0  0  0  0  0  0  0  0  0
   -0.0322    3.0599    0.0720 H   0  0  0  0  0  0  0  0  0  0  0  0
    0.4433    3.5177    1.7538 H   0  0  0  0  0  0  0  0  0  0  0  0
   -1.2246    2.8651    1.3461 H   0  0  0  0  0  0  0  0  0  0  0  0
    2.3183    2.0751    1.4610 H   0  0  0  0  0  0  0  0  0  0  0  0
    3.6871    1.8745    3.7193 H   0  0  0  0  0  0  0  0  0  0  0  0
    3.6440    2.8434    5.9596 H   0  0  0  0  0  0  0  0  0  0  0  0
    1.5119    3.5877    6.9801 H   0  0  0  0  0  0  0  0  0  0  0  0
   -0.5713    3.3535    5.7401 H   0  0  0  0  0  0  0  0  0  0  0  0
   -0.5542    2.3888    3.5439 H   0  0  0  0  0  0  0  0  0  0  0  0
    1.7691   -0.5046    1.7862 H   0  0  0  0  0  0  0  0  0  0  0  0
   -1.3641   -1.8504   -5.7759 H   0  0  0  0  0  0  0  0  0  0  0  0
   -2.5781   -2.1285   -4.5313 H   0  0  0  0  0  0  0  0  0  0  0  0
   -1.7971   -0.4847   -4.6606 H   0  0  0  0  0  0  0  0  0  0  0  0
   -6.7569   -3.5894   -3.6756 H   0  0  0  0  0  0  0  0  0  0  0  0
   -7.9461   -4.3946   -2.5895 H   0  0  0  0  0  0  0  0  0  0  0  0
   -8.0384   -2.6670   -2.9008 H   0  0  0  0  0  0  0  0  0  0  0  0
   -4.1269   -1.5670    1.4935 H   0  0  0  0  0  0  0  0  0  0  0  0
   -3.5381    0.1808    1.2698 H   0  0  0  0  0  0  0  0  0  0  0  0
   -5.0707   -0.1654    2.0461 H   0  0  0  0  0  0  0  0  0  0  0  0
   -5.8324    0.7650   -2.7403 H   0  0  0  0  0  0  0  0  0  0  0  0
   -7.3786    1.5693   -0.9781 H   0  0  0  0  0  0  0  0  0  0  0  0
   -6.5582    3.0231    0.5496 H   0  0  0  0  0  0  0  0  0  0  0  0
   -6.7906    4.2476   -0.6936 H   0  0  0  0  0  0  0  0  0  0  0  0
   -5.1697    3.3836   -0.5052 H   0  0  0  0  0  0  0  0  0  0  0  0
   -6.9692    3.6933   -3.0898 H   0  0  0  0  0  0  0  0  0  0  0  0
   -8.4057    3.1113   -2.2643 H   0  0  0  0  0  0  0  0  0  0  0  0
   -7.6450    1.9768   -3.3685 H   0  0  0  0  0  0  0  0  0  0  0  0
   -3.7874    2.6728   -1.7878 H   0  0  0  0  0  0  0  0  0  0  0  0
   -3.3183    3.4274   -5.4884 H   0  0  0  0  0  0  0  0  0  0  0  0
   -5.0186    4.8585   -5.0026 H   0  0  0  0  0  0  0  0  0  0  0  0
   -4.7130    4.7470   -2.4185 H   0  0  0  0  0  0  0  0  0  0  0  0
   -3.7602    6.3240   -2.6739 H   0  0  0  0  0  0  0  0  0  0  0  0
   -5.4449    6.1678   -3.1499 H   0  0  0  0  0  0  0  0  0  0  0  0
   -3.8716    6.9684   -5.2409 H   0  0  0  0  0  0  0  0  0  0  0  0
   -3.3233    5.6581   -6.3235 H   0  0  0  0  0  0  0  0  0  0  0  0
   -2.2928    6.2660   -4.8959 H   0  0  0  0  0  0  0  0  0  0  0  0
   -2.3938    4.5433   -1.8591 H   0  0  0  0  0  0  0  0  0  0  0  0
   -0.7444    4.5122   -2.4517 H   0  0  0  0  0  0  0  0  0  0  0  0
   -1.4715    3.0164   -1.8796 H   0  0  0  0  0  0  0  0  0  0  0  0
    1.7021    4.2260   -5.6269 H   0  0  0  0  0  0  0  0  0  0  0  0
    1.3556    2.5291   -5.9496 H   0  0  0  0  0  0  0  0  0  0  0  0
    3.0935    4.8284   -3.5693 H   0  0  0  0  0  0  0  0  0  0  0  0
    5.0265    3.9572   -2.1995 H   0  0  0  0  0  0  0  0  0  0  0  0
    4.2220    0.0070   -3.5615 H   0  0  0  0  0  0  0  0  0  0  0  0
    2.3894    0.8311   -4.8668 H   0  0  0  0  0  0  0  0  0  0  0  0
    6.7665    1.3258   -2.3314 H   0  0  0  0  0  0  0  0  0  0  0  0
    6.8353   -0.6212   -0.4093 H   0  0  0  0  0  0  0  0  0  0  0  0
    6.4613    1.7032    1.6026 H   0  0  0  0  0  0  0  0  0  0  0  0
    7.8043    0.5599    1.6753 H   0  0  0  0  0  0  0  0  0  0  0  0
    7.2929    2.5987   -0.5415 H   0  0  0  0  0  0  0  0  0  0  0  0
    8.5851    1.3268   -0.6195 H   0  0  0  0  0  0  0  0  0  0  0  0
    9.4596    3.4156    0.0869 H   0  0  0  0  0  0  0  0  0  0  0  0
    9.5604    2.1884    1.4595 H   0  0  0  0  0  0  0  0  0  0  0  0
    8.3301    3.6861    2.7791 H   0  0  0  0  0  0  0  0  0  0  0  0
    5.9704    5.0357    2.9523 H   0  0  0  0  0  0  0  0  0  0  0  0
    6.6343    6.5558    2.1935 H   0  0  0  0  0  0  0  0  0  0  0  0
    5.0325   -0.2074    1.9698 H   0  0  0  0  0  0  0  0  0  0  0  0
    3.7403   -3.4958    1.3000 H   0  0  0  0  0  0  0  0  0  0  0  0
    5.0505   -4.8741    2.8400 H   0  0  0  0  0  0  0  0  0  0  0  0
    5.2851   -4.7826    0.1505 H   0  0  0  0  0  0  0  0  0  0  0  0
    7.0174   -4.4536    0.6202 H   0  0  0  0  0  0  0  0  0  0  0  0
    6.2004   -5.9136    1.1787 H   0  0  0  0  0  0  0  0  0  0  0  0
    6.8560   -3.9349    3.9649 H   0  0  0  0  0  0  0  0  0  0  0  0
    7.7288   -3.8560    2.4088 H   0  0  0  0  0  0  0  0  0  0  0  0
    6.7819   -2.4257    2.8974 H   0  0  0  0  0  0  0  0  0  0  0  0
    4.5882   -1.6584    3.5057 H   0  0  0  0  0  0  0  0  0  0  0  0
    2.0599   -1.0650    4.6184 H   0  0  0  0  0  0  0  0  0  0  0  0
    3.0320   -2.2043    5.5538 H   0  0  0  0  0  0  0  0  0  0  0  0
    0.7669   -2.3338    6.3098 H   0  0  0  0  0  0  0  0  0  0  0  0
    1.2445   -3.8502    5.5566 H   0  0  0  0  0  0  0  0  0  0  0  0
   -1.0158   -3.2651    5.0032 H   0  0  0  0  0  0  0  0  0  0  0  0
   -0.0370   -3.3912    3.5440 H   0  0  0  0  0  0  0  0  0  0  0  0
    0.1089   -0.8246    3.4914 H   0  0  0  0  0  0  0  0  0  0  0  0
   -1.5541   -1.5328    3.3833 H   0  0  0  0  0  0  0  0  0  0  0  0
   -1.4775    0.4602    4.7581 H   0  0  0  0  0  0  0  0  0  0  0  0
   -0.3221   -0.2996    5.9098 H   0  0  0  0  0  0  0  0  0  0  0  0
   -4.1972   -2.6347    8.2331 H   0  0  0  0  0  0  0  0  0  0  0  0
   -5.6274   -1.4219    6.5312 H   0  0  0  0  0  0  0  0  0  0  0  0
  1  2  1  0
  2  3  1  0
  3  4  1  0
  3  5  1  0
  5  6  1  0
  6  7  1  0
  7  8  1  0
  8  9  2  0
  8 10  1  0
 10 11  1  0
 11 12  1  0
 12 13  1  0
 13 14  1  0
 14 15  1  0
 15 16  1  0
 16 17  1  0
 16 18  1  0
 18 19  2  0
 18 20  1  0
 20 21  1  0
 21 22  1  0
 21 23  1  0
 23 24  1  0
 24 25  2  0
 25 26  1  0
 26 27  2  0
 27 28  1  0
 28 29  2  0
 23 30  1  0
 15 31  1  0
 31 32  1  0
  6 33  1  0
 33 34  1  0
  5 35  1  0
 35 36  1  0
 35 37  1  0
 37 38  2  0
 37 39  1  0
 39 40  1  0
 40 41  1  0
 40 42  1  0
 39 43  1  0
 43 44  1  0
 44 45  2  0
 44 46  1  0
 46 47  1  0
 47 48  1  0
 47 49  1  0
 46 50  1  0
 50 51  1  0
 50 52  1  0
 52 53  2  0
 52 54  1  0
 54 55  1  0
 55 56  1  0
 56 57  1  0
 57 58  2  0
 58 59  1  0
 59 60  2  0
 60 61  1  0
 59 62  1  0
 62 63  1  0
 63 64  2  0
 63 65  1  0
 65 66  1  0
 66 67  1  0
 67 68  1  0
 68 69  1  0
 69 70  1  0
 70 71  2  0
 70 72  1  0
 65 73  1  0
 73 74  1  0
 74 75  2  0
 74 76  1  0
 76 77  1  0
 77 78  1  0
 77 79  1  0
 76 80  1  0
 80 81  1  0
 81 82  2  0
 81 83  1  0
 83 84  1  0
 84 85  1  0
 85 86  1  0
 86 87  1  0
 87 88  1  0
 88 89  1  0
 89 90  2  0
 89 91  1  0
 91 92  2  0
 92 93  1  0
 93 94  2  0
 14 10  1  0
 29 24  1  0
 61 56  2  0
 93 88  1  0
  1 95  1  0
  1 96  1  0
  1 97  1  0
  2 98  1  0
  2 99  1  0
  3100  1  6
  4101  1  0
  4102  1  0
  4103  1  0
  5104  1  1
  6105  1  6
  7106  1  0
  7107  1  0
 11108  1  0
 11109  1  0
 12110  1  0
 12111  1  0
 13112  1  0
 13113  1  0
 14114  1  1
 15115  1  6
 16116  1  1
 17117  1  0
 17118  1  0
 17119  1  0
 20120  1  0
 21121  1  1
 22122  1  0
 22123  1  0
 22124  1  0
 23125  1  6
 25126  1  0
 26127  1  0
 27128  1  0
 28129  1  0
 29130  1  0
 30131  1  0
 32132  1  0
 32133  1  0
 32134  1  0
 34135  1  0
 34136  1  0
 34137  1  0
 36138  1  0
 36139  1  0
 36140  1  0
 39141  1  6
 40142  1  0
 41143  1  0
 41144  1  0
 41145  1  0
 42146  1  0
 42147  1  0
 42148  1  0
 43149  1  0
 46150  1  6
 47151  1  0
 48152  1  0
 48153  1  0
 48154  1  0
 49155  1  0
 49156  1  0
 49157  1  0
 51158  1  0
 51159  1  0
 51160  1  0
 55161  1  0
 55162  1  0
 57163  1  0
 58164  1  0
 60165  1  0
 61166  1  0
 62167  1  0
 65168  1  6
 66169  1  0
 66170  1  0
 67171  1  0
 67172  1  0
 68173  1  0
 68174  1  0
 69175  1  0
 72176  1  0
 72177  1  0
 73178  1  0
 76179  1  6
 77180  1  0
 78181  1  0
 78182  1  0
 78183  1  0
 79184  1  0
 79185  1  0
 79186  1  0
 80187  1  0
 83188  1  0
 83189  1  0
 84190  1  0
 84191  1  0
 85192  1  0
 85193  1  0
 86194  1  0
 86195  1  0
 87196  1  0
 87197  1  0
 91198  1  0
 92199  1  0
M  END
$$$$

     RDKit          3D

199202  0  0  0  0  0  0  0  0999 V2000
   -1.0996   -0.1455   -2.4078 C   0  0  0  0  0  0  0  0  0  0  0  0
   -1.2032   -1.3385   -1.5063 C   0  0  0  0  0  0  0  0  0  0  0  0
   -0.8936   -0.8870   -0.0785 C   0  0  2  0  0  0  0  0  0  0  0  0
    0.4631   -0.3442   -0.0453 C   0  0  0  0  0  0  0  0  0  0  0  0
   -1.3875   -1.8934    0.8597 C   0  0  1  0  0  0  0  0  0  0  0  0
   -0.8406   -3.3083    0.7343 C   0  0  1  0  0  0  0  0  0  0  0  0
    0.4050   -3.6266    1.4394 C   0  0  0  0  0  0  0  0  0  0  0  0
    0.8935   -5.0002    1.2643 C   0  0  0  0  0  0  0  0  0  0  0  0
    0.1508   -5.8078    0.5870 O   0  0  0  0  0  0  0  0  0  0  0  0
    2.0763   -5.5902    1.7339 N   0  0  0  0  0  0  0  0  0  0  0  0
    2.3430   -7.0217    1.4089 C   0  0  0  0  0  0  0  0  0  0  0  0
    2.9256   -7.5382    2.6847 C   0  0  0  0  0  0  0  0  0  0  0  0
    3.8783   -6.3889    3.0688 C   0  0  0  0  0  0  0  0  0  0  0  0
    3.2032   -5.1661    2.5248 C   0  0  1  0  0  0  0  0  0  0  0  0
    4.1384   -4.2763    1.6992 C   0  0  1  0  0  0  0  0  0  0  0  0
    5.0999   -3.4950    2.4941 C   0  0  1  0  0  0  0  0  0  0  0  0
    6.0439   -4.3281    3.2949 C   0  0  0  0  0  0  0  0  0  0  0  0
    5.8215   -2.4168    1.7447 C   0  0  0  0  0  0  0  0  0  0  0  0
    7.0876   -2.4804    1.8053 O   0  0  0  0  0  0  0  0  0  0  0  0
    5.1600   -1.3995    1.0185 N   0  0  0  0  0  0  0  0  0  0  0  0
    5.7937   -0.3416    0.2954 C   0  0  2  0  0  0  0  0  0  0  0  0
    5.4120    0.9925    0.9404 C   0  0  0  0  0  0  0  0  0  0  0  0
    5.3789   -0.2145   -1.1532 C   0  0  1  0  0  0  0  0  0  0  0  0
    5.7627   -1.3375   -2.0005 C   0  0  0  0  0  0  0  0  0  0  0  0
    6.7774   -2.2285   -1.7315 C   0  0  0  0  0  0  0  0  0  0  0  0
    7.0975   -3.2799   -2.5718 C   0  0  0  0  0  0  0  0  0  0  0  0
    6.3895   -3.4959   -3.7696 C   0  0  0  0  0  0  0  0  0  0  0  0
    5.3845   -2.5895   -4.0069 C   0  0  0  0  0  0  0  0  0  0  0  0
    5.0595   -1.5473   -3.1835 C   0  0  0  0  0  0  0  0  0  0  0  0
    3.9796   -0.0523   -1.1215 O   0  0  0  0  0  0  0  0  0  0  0  0
    4.6644   -5.0277    0.6802 O   0  0  0  0  0  0  0  0  0  0  0  0
    4.1796   -4.6135   -0.5802 C   0  0  0  0  0  0  0  0  0  0  0  0
   -1.9148   -4.1624    1.1209 O   0  0  0  0  0  0  0  0  0  0  0  0
   -2.5990   -4.6497    0.0323 C   0  0  0  0  0  0  0  0  0  0  0  0
   -1.7816   -1.4790    2.1755 N   0  0  0  0  0  0  0  0  0  0  0  0
   -3.2087   -1.6231    2.6051 C   0  0  0  0  0  0  0  0  0  0  0  0
   -0.9520   -0.9244    3.1605 C   0  0  0  0  0  0  0  0  0  0  0  0
    0.2871   -0.7991    2.8482 O   0  0  0  0  0  0  0  0  0  0  0  0
   -1.3086   -0.4459    4.5077 C   0  0  1  0  0  0  0  0  0  0  0  0
   -1.1772   -1.4728    5.5946 C   0  0  0  0  0  0  0  0  0  0  0  0
   -1.5870   -0.8660    6.9454 C   0  0  0  0  0  0  0  0  0  0  0  0
    0.2437   -1.9689    5.8014 C   0  0  0  0  0  0  0  0  0  0  0  0
   -0.2957    0.6405    4.7274 N   0  0  0  0  0  0  0  0  0  0  0  0
   -0.7774    1.9785    4.8098 C   0  0  0  0  0  0  0  0  0  0  0  0
   -2.0590    2.0665    4.7447 O   0  0  0  0  0  0  0  0  0  0  0  0
   -0.0025    3.1897    4.9421 C   0  0  1  0  0  0  0  0  0  0  0  0
    0.8474    3.3786    3.6051 C   0  0  0  0  0  0  0  0  0  0  0  0
    1.6143    4.6896    3.7159 C   0  0  0  0  0  0  0  0  0  0  0  0
    1.9054    2.3095    3.5532 C   0  0  0  0  0  0  0  0  0  0  0  0
   -0.6436    4.4434    5.1537 N   0  0  0  0  0  0  0  0  0  0  0  0
   -0.0052    5.3542    6.1268 C   0  0  0  0  0  0  0  0  0  0  0  0
   -1.8260    4.9270    4.5482 C   0  0  0  0  0  0  0  0  0  0  0  0
   -2.6364    4.2296    3.8837 O   0  0  0  0  0  0  0  0  0  0  0  0
   -2.1827    6.2812    4.6452 O   0  0  0  0  0  0  0  0  0  0  0  0
   -3.3845    6.8142    4.1058 C   0  0  0  0  0  0  0  0  0  0  0  0
   -3.6138    6.3270    2.7240 C   0  0  0  0  0  0  0  0  0  0  0  0
   -2.9163    6.6491    1.6072 C   0  0  0  0  0  0  0  0  0  0  0  0
   -3.2719    6.0581    0.3709 C   0  0  0  0  0  0  0  0  0  0  0  0
   -4.3100    5.1847    0.3344 C   0  0  0  0  0  0  0  0  0  0  0  0
   -5.0632    4.8261    1.4651 C   0  0  0  0  0  0  0  0  0  0  0  0
   -4.7009    5.4045    2.6449 C   0  0  0  0  0  0  0  0  0  0  0  0
   -4.6920    4.4075   -0.8329 N   0  0  0  0  0  0  0  0  0  0  0  0
   -4.3794    3.0347   -0.6907 C   0  0  0  0  0  0  0  0  0  0  0  0
   -3.8220    2.7110    0.4203 O   0  0  0  0  0  0  0  0  0  0  0  0
   -4.6106    1.9405   -1.6352 C   0  0  1  0  0  0  0  0  0  0  0  0
   -5.5185    0.8914   -1.0666 C   0  0  0  0  0  0  0  0  0  0  0  0
   -5.8220   -0.2876   -1.9186 C   0  0  0  0  0  0  0  0  0  0  0  0
   -6.8002   -1.1587   -1.1001 C   0  0  0  0  0  0  0  0  0  0  0  0
   -6.1872   -1.5711    0.1497 N   0  0  0  0  0  0  0  0  0  0  0  0
   -6.9872   -2.3836    1.0330 C   0  0  0  0  0  0  0  0  0  0  0  0
   -8.1454   -2.6462    0.6083 O   0  0  0  0  0  0  0  0  0  0  0  0
   -6.4895   -2.8412    2.2889 N   0  0  0  0  0  0  0  0  0  0  0  0
   -5.0902    2.3943   -2.9436 N   0  0  0  0  0  0  0  0  0  0  0  0
   -4.1553    2.6894   -3.9116 C   0  0  0  0  0  0  0  0  0  0  0  0
   -2.9044    2.5570   -3.5366 O   0  0  0  0  0  0  0  0  0  0  0  0
   -4.2986    3.1256   -5.3065 C   0  0  1  0  0  0  0  0  0  0  0  0
   -5.4199    3.9877   -5.6850 C   0  0  0  0  0  0  0  0  0  0  0  0
   -6.8071    3.3623   -5.4633 C   0  0  0  0  0  0  0  0  0  0  0  0
   -5.4347    5.3747   -5.0861 C   0  0  0  0  0  0  0  0  0  0  0  0
   -2.9926    3.5787   -5.7912 N   0  0  0  0  0  0  0  0  0  0  0  0
   -1.9576    2.7259   -6.2077 C   0  0  0  0  0  0  0  0  0  0  0  0
   -2.1830    1.4768   -6.1379 O   0  0  0  0  0  0  0  0  0  0  0  0
   -0.6987    3.3212   -6.6858 C   0  0  0  0  0  0  0  0  0  0  0  0
    0.3966    2.3307   -6.8308 C   0  0  0  0  0  0  0  0  0  0  0  0
    0.1340    1.2287   -7.8018 C   0  0  0  0  0  0  0  0  0  0  0  0
    1.3617    0.3114   -7.8128 C   0  0  0  0  0  0  0  0  0  0  0  0
    2.6171    1.0018   -8.2407 C   0  0  0  0  0  0  0  0  0  0  0  0
    3.7558    0.0597   -8.2215 N   0  0  0  0  0  0  0  0  0  0  0  0
    4.6121   -0.1665   -7.0978 C   0  0  0  0  0  0  0  0  0  0  0  0
    4.5752    0.3608   -5.9642 O   0  0  0  0  0  0  0  0  0  0  0  0
    5.5833   -1.1769   -7.5338 C   0  0  0  0  0  0  0  0  0  0  0  0
    5.3454   -1.5325   -8.7944 C   0  0  0  0  0  0  0  0  0  0  0  0
    4.2030   -0.7730   -9.2562 C   0  0  0  0  0  0  0  0  0  0  0  0
    3.7213   -0.8810  -10.4240 O   0  0  0  0  0  0  0  0  0  0  0  0
   -0.0982   -0.0262   -2.8982 H   0  0  0  0  0  0  0  0  0  0  0  0
   -1.8076   -0.2473   -3.2773 H   0  0  0  0  0  0  0  0  0  0  0  0
   -1.3038    0.8155   -1.8938 H   0  0  0  0  0  0  0  0  0  0  0  0
   -0.4013   -2.0480   -1.8510 H   0  0  0  0  0  0  0  0  0  0  0  0
   -2.1941   -1.7918   -1.5220 H   0  0  0  0  0  0  0  0  0  0  0  0
   -1.6240    0.0073    0.0414 H   0  0  0  0  0  0  0  0  0  0  0  0
    0.4579    0.6404    0.5212 H   0  0  0  0  0  0  0  0  0  0  0  0
    0.7702    0.0116   -1.0880 H   0  0  0  0  0  0  0  0  0  0  0  0
    1.2902   -0.8987    0.3675 H   0  0  0  0  0  0  0  0  0  0  0  0
   -2.4763   -2.1312    0.3905 H   0  0  0  0  0  0  0  0  0  0  0  0
   -0.7504   -3.4286   -0.3684 H   0  0  0  0  0  0  0  0  0  0  0  0
    1.2292   -2.9461    1.1929 H   0  0  0  0  0  0  0  0  0  0  0  0
    0.1908   -3.5069    2.5458 H   0  0  0  0  0  0  0  0  0  0  0  0
    3.0694   -7.0226    0.5814 H   0  0  0  0  0  0  0  0  0  0  0  0
    1.4437   -7.5384    1.0883 H   0  0  0  0  0  0  0  0  0  0  0  0
    3.5451   -8.4286    2.5871 H   0  0  0  0  0  0  0  0  0  0  0  0
    2.1484   -7.6061    3.4425 H   0  0  0  0  0  0  0  0  0  0  0  0
    4.8784   -6.6001    2.6887 H   0  0  0  0  0  0  0  0  0  0  0  0
    3.8680   -6.4353    4.1935 H   0  0  0  0  0  0  0  0  0  0  0  0
    2.9192   -4.5367    3.3963 H   0  0  0  0  0  0  0  0  0  0  0  0
    3.4371   -3.4844    1.2460 H   0  0  0  0  0  0  0  0  0  0  0  0
    4.4657   -2.9382    3.2800 H   0  0  0  0  0  0  0  0  0  0  0  0
    6.8224   -3.6608    3.8066 H   0  0  0  0  0  0  0  0  0  0  0  0
    6.5695   -5.0651    2.6592 H   0  0  0  0  0  0  0  0  0  0  0  0
    5.5299   -4.8386    4.1013 H   0  0  0  0  0  0  0  0  0  0  0  0
    4.1053   -1.4071    0.9918 H   0  0  0  0  0  0  0  0  0  0  0  0
    6.9190   -0.4156    0.3510 H   0  0  0  0  0  0  0  0  0  0  0  0
    5.3329    0.8902    2.0344 H   0  0  0  0  0  0  0  0  0  0  0  0
    4.3998    1.2476    0.5421 H   0  0  0  0  0  0  0  0  0  0  0  0
    6.0965    1.7973    0.6614 H   0  0  0  0  0  0  0  0  0  0  0  0
    5.8518    0.7375   -1.5270 H   0  0  0  0  0  0  0  0  0  0  0  0
    7.3494   -2.1068   -0.8388 H   0  0  0  0  0  0  0  0  0  0  0  0
    7.9033   -3.9343   -2.2917 H   0  0  0  0  0  0  0  0  0  0  0  0
    6.6397   -4.3086   -4.4093 H   0  0  0  0  0  0  0  0  0  0  0  0
    4.8200   -2.7268   -4.9270 H   0  0  0  0  0  0  0  0  0  0  0  0
    4.2510   -0.9015   -3.4630 H   0  0  0  0  0  0  0  0  0  0  0  0
    3.6063   -0.9452   -1.3430 H   0  0  0  0  0  0  0  0  0  0  0  0
    3.0599   -4.7232   -0.5946 H   0  0  0  0  0  0  0  0  0  0  0  0
    4.6566   -5.2314   -1.3721 H   0  0  0  0  0  0  0  0  0  0  0  0
    4.4636   -3.5546   -0.7023 H   0  0  0  0  0  0  0  0  0  0  0  0
   -1.9888   -5.2324   -0.6576 H   0  0  0  0  0  0  0  0  0  0  0  0
   -3.0250   -3.8096   -0.5739 H   0  0  0  0  0  0  0  0  0  0  0  0
   -3.5135   -5.2231    0.3429 H   0  0  0  0  0  0  0  0  0  0  0  0
   -3.6463   -2.3482    1.8628 H   0  0  0  0  0  0  0  0  0  0  0  0
   -3.3026   -2.0548    3.5964 H   0  0  0  0  0  0  0  0  0  0  0  0
   -3.7523   -0.6870    2.4993 H   0  0  0  0  0  0  0  0  0  0  0  0
   -2.3033   -0.0003    4.4846 H   0  0  0  0  0  0  0  0  0  0  0  0
   -1.8217   -2.3581    5.4169 H   0  0  0  0  0  0  0  0  0  0  0  0
   -1.3307   -1.5755    7.7582 H   0  0  0  0  0  0  0  0  0  0  0  0
   -1.0455    0.0710    7.1191 H   0  0  0  0  0  0  0  0  0  0  0  0
   -2.6803   -0.6579    6.9915 H   0  0  0  0  0  0  0  0  0  0  0  0
    0.9296   -1.6184    5.0071 H   0  0  0  0  0  0  0  0  0  0  0  0
    0.2738   -3.0717    5.7549 H   0  0  0  0  0  0  0  0  0  0  0  0
    0.6307   -1.7317    6.8310 H   0  0  0  0  0  0  0  0  0  0  0  0
    0.7077    0.4162    4.8258 H   0  0  0  0  0  0  0  0  0  0  0  0
    0.8639    3.0261    5.6451 H   0  0  0  0  0  0  0  0  0  0  0  0
    0.2021    3.3427    2.7552 H   0  0  0  0  0  0  0  0  0  0  0  0
    2.4444    4.5870    2.9595 H   0  0  0  0  0  0  0  0  0  0  0  0
    0.9569    5.5193    3.4237 H   0  0  0  0  0  0  0  0  0  0  0  0
    2.0640    4.7426    4.7095 H   0  0  0  0  0  0  0  0  0  0  0  0
    1.6807    1.4470    2.9314 H   0  0  0  0  0  0  0  0  0  0  0  0
    2.8569    2.7407    3.0620 H   0  0  0  0  0  0  0  0  0  0  0  0
    2.2927    2.0508    4.5738 H   0  0  0  0  0  0  0  0  0  0  0  0
   -0.7914    5.6245    6.8705 H   0  0  0  0  0  0  0  0  0  0  0  0
    0.4404    6.2392    5.6507 H   0  0  0  0  0  0  0  0  0  0  0  0
    0.7733    4.8452    6.7136 H   0  0  0  0  0  0  0  0  0  0  0  0
   -3.2254    7.9132    4.0458 H   0  0  0  0  0  0  0  0  0  0  0  0
   -4.2496    6.6883    4.7748 H   0  0  0  0  0  0  0  0  0  0  0  0
   -2.1068    7.3482    1.6837 H   0  0  0  0  0  0  0  0  0  0  0  0
   -2.7296    6.2947   -0.5288 H   0  0  0  0  0  0  0  0  0  0  0  0
   -5.8761    4.1331    1.4295 H   0  0  0  0  0  0  0  0  0  0  0  0
   -5.2646    5.1497    3.5335 H   0  0  0  0  0  0  0  0  0  0  0  0
   -5.1354    4.7874   -1.6686 H   0  0  0  0  0  0  0  0  0  0  0  0
   -3.6190    1.4797   -1.8119 H   0  0  0  0  0  0  0  0  0  0  0  0
   -5.1796    0.5736   -0.0454 H   0  0  0  0  0  0  0  0  0  0  0  0
   -6.4957    1.4206   -0.8626 H   0  0  0  0  0  0  0  0  0  0  0  0
   -6.2668   -0.0652   -2.8845 H   0  0  0  0  0  0  0  0  0  0  0  0
   -4.8988   -0.9185   -2.0129 H   0  0  0  0  0  0  0  0  0  0  0  0
   -7.1930   -2.0039   -1.6770 H   0  0  0  0  0  0  0  0  0  0  0  0
   -7.6146   -0.4391   -0.8145 H   0  0  0  0  0  0  0  0  0  0  0  0
   -5.2323   -1.3325    0.4498 H   0  0  0  0  0  0  0  0  0  0  0  0
   -6.3948   -3.8482    2.5447 H   0  0  0  0  0  0  0  0  0  0  0  0
   -6.1923   -2.1271    3.0312 H   0  0  0  0  0  0  0  0  0  0  0  0
   -6.1041    2.4923   -3.1455 H   0  0  0  0  0  0  0  0  0  0  0  0
   -4.4967    2.1183   -5.8874 H   0  0  0  0  0  0  0  0  0  0  0  0
   -5.3746    4.1604   -6.8087 H   0  0  0  0  0  0  0  0  0  0  0  0
   -6.6520    2.2654   -5.4054 H   0  0  0  0  0  0  0  0  0  0  0  0
   -7.4453    3.4727   -6.4031 H   0  0  0  0  0  0  0  0  0  0  0  0
   -7.3417    3.7921   -4.6196 H   0  0  0  0  0  0  0  0  0  0  0  0
   -4.8436    5.4924   -4.1723 H   0  0  0  0  0  0  0  0  0  0  0  0
   -6.5187    5.6627   -4.9199 H   0  0  0  0  0  0  0  0  0  0  0  0
   -5.0699    6.1435   -5.7937 H   0  0  0  0  0  0  0  0  0  0  0  0
   -2.8823    4.6365   -5.7888 H   0  0  0  0  0  0  0  0  0  0  0  0
   -0.4012    4.2116   -6.0977 H   0  0  0  0  0  0  0  0  0  0  0  0
   -0.8780    3.7448   -7.7337 H   0  0  0  0  0  0  0  0  0  0  0  0
    1.2804    2.9075   -7.2772 H   0  0  0  0  0  0  0  0  0  0  0  0
    0.7566    1.9338   -5.8371 H   0  0  0  0  0  0  0  0  0  0  0  0
   -0.7736    0.6410   -7.6197 H   0  0  0  0  0  0  0  0  0  0  0  0
    0.0078    1.7052   -8.8100 H   0  0  0  0  0  0  0  0  0  0  0  0
    1.1347   -0.5847   -8.4281 H   0  0  0  0  0  0  0  0  0  0  0  0
    1.5318   -0.0456   -6.7611 H   0  0  0  0  0  0  0  0  0  0  0  0
    2.5385    1.3935   -9.2785 H   0  0  0  0  0  0  0  0  0  0  0  0
    2.9105    1.8056   -7.5378 H   0  0  0  0  0  0  0  0  0  0  0  0
    6.3732   -1.5463   -6.8833 H   0  0  0  0  0  0  0  0  0  0  0  0
    5.9626   -2.2743   -9.2808 H   0  0  0  0  0  0  0  0  0  0  0  0
  1  2  1  0
  2  3  1  0
  3  4  1  0
  3  5  1  0
  5  6  1  0
  6  7  1  0
  7  8  1  0
  8  9  2  0
  8 10  1  0
 10 11  1  0
 11 12  1  0
 12 13  1  0
 13 14  1  0
 14 15  1  0
 15 16  1  0
 16 17  1  0
 16 18  1  0
 18 19  2  0
 18 20  1  0
 20 21  1  0
 21 22  1  0
 21 23  1  0
 23 24  1  0
 24 25  2  0
 25 26  1  0
 26 27  2  0
 27 28  1  0
 28 29  2  0
 23 30  1  0
 15 31  1  0
 31 32  1  0
  6 33  1  0
 33 34  1  0
  5 35  1  0
 35 36  1  0
 35 37  1  0
 37 38  2  0
 37 39  1  0
 39 40  1  0
 40 41  1  0
 40 42  1  0
 39 43  1  0
 43 44  1  0
 44 45  2  0
 44 46  1  0
 46 47  1  0
 47 48  1  0
 47 49  1  0
 46 50  1  0
 50 51  1  0
 50 52  1  0
 52 53  2  0
 52 54  1  0
 54 55  1  0
 55 56  1  0
 56 57  1  0
 57 58  2  0
 58 59  1  0
 59 60  2  0
 60 61  1  0
 59 62  1  0
 62 63  1  0
 63 64  2  0
 63 65  1  0
 65 66  1  0
 66 67  1  0
 67 68  1  0
 68 69  1  0
 69 70  1  0
 70 71  2  0
 70 72  1  0
 65 73  1  0
 73 74  1  0
 74 75  2  0
 74 76  1  0
 76 77  1  0
 77 78  1  0
 77 79  1  0
 76 80  1  0
 80 81  1  0
 81 82  2  0
 81 83  1  0
 83 84  1  0
 84 85  1  0
 85 86  1  0
 86 87  1  0
 87 88  1  0
 88 89  1  0
 89 90  2  0
 89 91  1  0
 91 92  2  0
 92 93  1  0
 93 94  2  0
 14 10  1  0
 29 24  1  0
 61 56  2  0
 93 88  1  0
  1 95  1  0
  1 96  1  0
  1 97  1  0
  2 98  1  0
  2 99  1  0
  3100  1  1
  4101  1  0
  4102  1  0
  4103  1  0
  5104  1  6
  6105  1  6
  7106  1  0
  7107  1  0
 11108  1  0
 11109  1  0
 12110  1  0
 12111  1  0
 13112  1  0
 13113  1  0
 14114  1  1
 15115  1  6
 16116  1  1
 17117  1  0
 17118  1  0
 17119  1  0
 20120  1  0
 21121  1  6
 22122  1  0
 22123  1  0
 22124  1  0
 23125  1  6
 25126  1  0
 26127  1  0
 27128  1  0
 28129  1  0
 29130  1  0
 30131  1  0
 32132  1  0
 32133  1  0
 32134  1  0
 34135  1  0
 34136  1  0
 34137  1  0
 36138  1  0
 36139  1  0
 36140  1  0
 39141  1  6
 40142  1  0
 41143  1  0
 41144  1  0
 41145  1  0
 42146  1  0
 42147  1  0
 42148  1  0
 43149  1  0
 46150  1  1
 47151  1  0
 48152  1  0
 48153  1  0
 48154  1  0
 49155  1  0
 49156  1  0
 49157  1  0
 51158  1  0
 51159  1  0
 51160  1  0
 55161  1  0
 55162  1  0
 57163  1  0
 58164  1  0
 60165  1  0
 61166  1  0
 62167  1  0
 65168  1  6
 66169  1  0
 66170  1  0
 67171  1  0
 67172  1  0
 68173  1  0
 68174  1  0
 69175  1  0
 72176  1  0
 72177  1  0
 73178  1  0
 76179  1  6
 77180  1  0
 78181  1  0
 78182  1  0
 78183  1  0
 79184  1  0
 79185  1  0
 79186  1  0
 80187  1  0
 83188  1  0
 83189  1  0
 84190  1  0
 84191  1  0
 85192  1  0
 85193  1  0
 86194  1  0
 86195  1  0
 87196  1  0
 87197  1  0
 91198  1  0
 92199  1  0
M  END
$$$$

     RDKit          3D

199202  0  0  0  0  0  0  0  0999 V2000
   -2.3196   -0.8375    2.3274 C   0  0  0  0  0  0  0  0  0  0  0  0
   -2.4566   -0.6621    0.7973 C   0  0  0  0  0  0  0  0  0  0  0  0
   -3.0195    0.7195    0.5435 C   0  0  2  0  0  0  0  0  0  0  0  0
   -4.3650    0.7925    1.1388 C   0  0  0  0  0  0  0  0  0  0  0  0
   -2.7866    1.2554   -0.8742 C   0  0  1  0  0  0  0  0  0  0  0  0
   -3.4064    0.4680   -1.9089 C   0  0  1  0  0  0  0  0  0  0  0  0
   -3.3560    0.8007   -3.3317 C   0  0  0  0  0  0  0  0  0  0  0  0
   -2.2555    0.8751   -4.2379 C   0  0  0  0  0  0  0  0  0  0  0  0
   -2.2667    1.6871   -5.1818 O   0  0  0  0  0  0  0  0  0  0  0  0
   -1.0557    0.0423   -4.1776 N   0  0  0  0  0  0  0  0  0  0  0  0
   -0.5976   -0.9024   -3.1875 C   0  0  0  0  0  0  0  0  0  0  0  0
    0.8816   -1.1212   -3.3683 C   0  0  0  0  0  0  0  0  0  0  0  0
    1.2145   -0.5587   -4.7019 C   0  0  0  0  0  0  0  0  0  0  0  0
   -0.0671   -0.0802   -5.2283 C   0  0  1  0  0  0  0  0  0  0  0  0
   -0.4607   -0.5567   -6.5620 C   0  0  1  0  0  0  0  0  0  0  0  0
   -1.2299   -1.7592   -6.7964 C   0  0  1  0  0  0  0  0  0  0  0  0
   -1.4921   -1.9122   -8.3073 C   0  0  0  0  0  0  0  0  0  0  0  0
   -0.8089   -3.0801   -6.3492 C   0  0  0  0  0  0  0  0  0  0  0  0
    0.0395   -3.3779   -5.4758 O   0  0  0  0  0  0  0  0  0  0  0  0
   -1.4330   -4.2188   -6.9893 N   0  0  0  0  0  0  0  0  0  0  0  0
   -1.1269   -5.5833   -6.6831 C   0  0  2  0  0  0  0  0  0  0  0  0
   -0.3443   -6.2906   -7.7320 C   0  0  0  0  0  0  0  0  0  0  0  0
   -2.3697   -6.3907   -6.3644 C   0  0  1  0  0  0  0  0  0  0  0  0
   -2.9838   -6.1127   -5.0726 C   0  0  0  0  0  0  0  0  0  0  0  0
   -3.8691   -5.0661   -4.8539 C   0  0  0  0  0  0  0  0  0  0  0  0
   -4.4677   -4.8094   -3.6563 C   0  0  0  0  0  0  0  0  0  0  0  0
   -4.1851   -5.6725   -2.5047 C   0  0  0  0  0  0  0  0  0  0  0  0
   -3.3125   -6.6557   -2.8349 C   0  0  0  0  0  0  0  0  0  0  0  0
   -2.7140   -6.9193   -4.0090 C   0  0  0  0  0  0  0  0  0  0  0  0
   -3.2850   -6.3666   -7.4100 O   0  0  0  0  0  0  0  0  0  0  0  0
   -1.2808    0.4908   -7.1241 O   0  0  0  0  0  0  0  0  0  0  0  0
   -0.3953    1.1651   -7.9736 C   0  0  0  0  0  0  0  0  0  0  0  0
   -3.1375   -0.9478   -1.8696 O   0  0  0  0  0  0  0  0  0  0  0  0
   -4.3391   -1.6559   -1.8252 C   0  0  0  0  0  0  0  0  0  0  0  0
   -3.1024    2.6539   -0.8208 N   0  0  0  0  0  0  0  0  0  0  0  0
   -4.5376    2.9485   -1.2100 C   0  0  0  0  0  0  0  0  0  0  0  0
   -2.4031    3.8193   -0.5846 C   0  0  0  0  0  0  0  0  0  0  0  0
   -3.1554    4.9002   -0.5337 O   0  0  0  0  0  0  0  0  0  0  0  0
   -0.9919    4.1825   -0.3531 C   0  0  1  0  0  0  0  0  0  0  0  0
   -0.5812    3.6072    1.0530 C   0  0  0  0  0  0  0  0  0  0  0  0
   -1.5284    4.1732    2.0559 C   0  0  0  0  0  0  0  0  0  0  0  0
    0.7672    4.3454    1.3027 C   0  0  0  0  0  0  0  0  0  0  0  0
   -0.0072    3.7397   -1.2815 N   0  0  0  0  0  0  0  0  0  0  0  0
    0.8920    4.8418   -1.7738 C   0  0  0  0  0  0  0  0  0  0  0  0
    0.6753    5.9592   -1.3409 O   0  0  0  0  0  0  0  0  0  0  0  0
    1.9410    4.3824   -2.7435 C   0  0  1  0  0  0  0  0  0  0  0  0
    1.3767    4.2632   -4.1077 C   0  0  0  0  0  0  0  0  0  0  0  0
    2.3481    3.7142   -5.1187 C   0  0  0  0  0  0  0  0  0  0  0  0
    0.0552    3.6043   -4.1780 C   0  0  0  0  0  0  0  0  0  0  0  0
    2.9333    5.4799   -2.7304 N   0  0  0  0  0  0  0  0  0  0  0  0
    2.6408    6.6160   -3.5692 C   0  0  0  0  0  0  0  0  0  0  0  0
    4.1456    5.4320   -2.0079 C   0  0  0  0  0  0  0  0  0  0  0  0
    5.0081    6.3374   -2.0672 O   0  0  0  0  0  0  0  0  0  0  0  0
    4.4686    4.3611   -1.1500 O   0  0  0  0  0  0  0  0  0  0  0  0
    5.7449    4.4437   -0.4611 C   0  0  0  0  0  0  0  0  0  0  0  0
    5.8082    3.3345    0.5152 C   0  0  0  0  0  0  0  0  0  0  0  0
    6.3431    2.1034    0.3887 C   0  0  0  0  0  0  0  0  0  0  0  0
    6.2909    1.0930    1.2983 C   0  0  0  0  0  0  0  0  0  0  0  0
    5.5894    1.4132    2.4764 C   0  0  0  0  0  0  0  0  0  0  0  0
    5.0166    2.6531    2.6903 C   0  0  0  0  0  0  0  0  0  0  0  0
    5.1384    3.5946    1.7058 C   0  0  0  0  0  0  0  0  0  0  0  0
    5.2254    0.4365    3.4913 N   0  0  0  0  0  0  0  0  0  0  0  0
    4.0654   -0.2721    3.0192 C   0  0  0  0  0  0  0  0  0  0  0  0
    3.7364    0.0906    1.8219 O   0  0  0  0  0  0  0  0  0  0  0  0
    3.2506   -1.2689    3.6423 C   0  0  1  0  0  0  0  0  0  0  0  0
    3.4080   -2.6642    3.0449 C   0  0  0  0  0  0  0  0  0  0  0  0
    4.7731   -3.2383    3.1474 C   0  0  0  0  0  0  0  0  0  0  0  0
    4.8206   -4.6178    2.4336 C   0  0  0  0  0  0  0  0  0  0  0  0
    4.5391   -4.4148    1.0380 N   0  0  0  0  0  0  0  0  0  0  0  0
    4.4572   -5.3750    0.0198 C   0  0  0  0  0  0  0  0  0  0  0  0
    4.6724   -6.6003    0.4305 O   0  0  0  0  0  0  0  0  0  0  0  0
    4.1864   -5.1857   -1.3289 N   0  0  0  0  0  0  0  0  0  0  0  0
    3.3116   -1.4156    5.0898 N   0  0  0  0  0  0  0  0  0  0  0  0
    2.1518   -1.0483    5.7815 C   0  0  0  0  0  0  0  0  0  0  0  0
    1.1665   -0.6172    5.0153 O   0  0  0  0  0  0  0  0  0  0  0  0
    1.7730   -1.0364    7.1954 C   0  0  1  0  0  0  0  0  0  0  0  0
    2.5361   -0.0391    8.0336 C   0  0  0  0  0  0  0  0  0  0  0  0
    2.3082    1.4020    7.5209 C   0  0  0  0  0  0  0  0  0  0  0  0
    4.0259   -0.2717    8.0728 C   0  0  0  0  0  0  0  0  0  0  0  0
    0.3253   -0.6796    7.2014 N   0  0  0  0  0  0  0  0  0  0  0  0
   -0.6131   -1.4021    8.0432 C   0  0  0  0  0  0  0  0  0  0  0  0
   -0.1460   -2.2585    8.7660 O   0  0  0  0  0  0  0  0  0  0  0  0
   -2.0257   -0.9663    7.8677 C   0  0  0  0  0  0  0  0  0  0  0  0
   -2.8921   -1.0962    9.0554 C   0  0  0  0  0  0  0  0  0  0  0  0
   -4.3289   -0.8791    8.8178 C   0  0  0  0  0  0  0  0  0  0  0  0
   -4.9182    0.2633    8.1174 C   0  0  0  0  0  0  0  0  0  0  0  0
   -4.7293    0.3604    6.6423 C   0  0  0  0  0  0  0  0  0  0  0  0
   -5.4028    1.5324    6.0803 N   0  0  0  0  0  0  0  0  0  0  0  0
   -6.6708    1.7138    5.5525 C   0  0  0  0  0  0  0  0  0  0  0  0
   -7.5532    0.7998    5.4809 O   0  0  0  0  0  0  0  0  0  0  0  0
   -6.8893    3.0484    5.0916 C   0  0  0  0  0  0  0  0  0  0  0  0
   -5.7192    3.7647    5.3239 C   0  0  0  0  0  0  0  0  0  0  0  0
   -4.7683    2.8093    5.9536 C   0  0  0  0  0  0  0  0  0  0  0  0
   -3.6121    3.0516    6.3147 O   0  0  0  0  0  0  0  0  0  0  0  0
   -1.2430   -0.7780    2.6054 H   0  0  0  0  0  0  0  0  0  0  0  0
   -2.8101    0.0506    2.8084 H   0  0  0  0  0  0  0  0  0  0  0  0
   -2.8251   -1.7610    2.5957 H   0  0  0  0  0  0  0  0  0  0  0  0
   -3.2212   -1.4501    0.5520 H   0  0  0  0  0  0  0  0  0  0  0  0
   -1.4772   -0.8232    0.3781 H   0  0  0  0  0  0  0  0  0  0  0  0
   -2.3394    1.3785    1.1978 H   0  0  0  0  0  0  0  0  0  0  0  0
   -4.8680   -0.2297    1.0990 H   0  0  0  0  0  0  0  0  0  0  0  0
   -5.0939    1.4890    0.6972 H   0  0  0  0  0  0  0  0  0  0  0  0
   -4.3362    1.1232    2.2284 H   0  0  0  0  0  0  0  0  0  0  0  0
   -1.6402    1.2364   -0.8700 H   0  0  0  0  0  0  0  0  0  0  0  0
   -4.5467    0.4021   -1.7027 H   0  0  0  0  0  0  0  0  0  0  0  0
   -4.1170    0.0953   -3.8337 H   0  0  0  0  0  0  0  0  0  0  0  0
   -3.9497    1.8042   -3.5181 H   0  0  0  0  0  0  0  0  0  0  0  0
   -0.6793   -0.5239   -2.1527 H   0  0  0  0  0  0  0  0  0  0  0  0
   -1.0861   -1.8925   -3.2193 H   0  0  0  0  0  0  0  0  0  0  0  0
    1.4805   -0.5641   -2.5984 H   0  0  0  0  0  0  0  0  0  0  0  0
    1.1260   -2.1999   -3.2565 H   0  0  0  0  0  0  0  0  0  0  0  0
    1.9662    0.2992   -4.5943 H   0  0  0  0  0  0  0  0  0  0  0  0
    1.6955   -1.3583   -5.3090 H   0  0  0  0  0  0  0  0  0  0  0  0
    0.1553    1.0535   -5.4454 H   0  0  0  0  0  0  0  0  0  0  0  0
    0.4542   -0.4971   -7.1778 H   0  0  0  0  0  0  0  0  0  0  0  0
   -2.2904   -1.5274   -6.3950 H   0  0  0  0  0  0  0  0  0  0  0  0
   -0.8564   -2.7076   -8.7542 H   0  0  0  0  0  0  0  0  0  0  0  0
   -2.5770   -2.2490   -8.3834 H   0  0  0  0  0  0  0  0  0  0  0  0
   -1.3555   -0.9830   -8.8561 H   0  0  0  0  0  0  0  0  0  0  0  0
   -2.1708   -4.0686   -7.7431 H   0  0  0  0  0  0  0  0  0  0  0  0
   -0.4929   -5.5878   -5.7469 H   0  0  0  0  0  0  0  0  0  0  0  0
   -0.8130   -7.1886   -8.1340 H   0  0  0  0  0  0  0  0  0  0  0  0
   -0.1858   -5.6103   -8.5906 H   0  0  0  0  0  0  0  0  0  0  0  0
    0.7021   -6.5224   -7.3505 H   0  0  0  0  0  0  0  0  0  0  0  0
   -2.0298   -7.4753   -6.3289 H   0  0  0  0  0  0  0  0  0  0  0  0
   -4.1054   -4.3874   -5.6774 H   0  0  0  0  0  0  0  0  0  0  0  0
   -5.1527   -3.9895   -3.4583 H   0  0  0  0  0  0  0  0  0  0  0  0
   -4.6620   -5.4697   -1.5820 H   0  0  0  0  0  0  0  0  0  0  0  0
   -3.0710   -7.3573   -1.9961 H   0  0  0  0  0  0  0  0  0  0  0  0
   -2.0241   -7.7437   -4.1394 H   0  0  0  0  0  0  0  0  0  0  0  0
   -3.8633   -7.1736   -7.3364 H   0  0  0  0  0  0  0  0  0  0  0  0
   -0.8905    1.9644   -8.5537 H   0  0  0  0  0  0  0  0  0  0  0  0
    0.2289    0.5612   -8.6204 H   0  0  0  0  0  0  0  0  0  0  0  0
    0.3637    1.7262   -7.3254 H   0  0  0  0  0  0  0  0  0  0  0  0
   -4.8807   -1.4249   -2.7577 H   0  0  0  0  0  0  0  0  0  0  0  0
   -5.0213   -1.3109   -1.0167 H   0  0  0  0  0  0  0  0  0  0  0  0
   -4.1443   -2.7243   -1.6863 H   0  0  0  0  0  0  0  0  0  0  0  0
   -4.4610    3.7062   -2.0689 H   0  0  0  0  0  0  0  0  0  0  0  0
   -4.9880    3.5497   -0.4063 H   0  0  0  0  0  0  0  0  0  0  0  0
   -5.1260    2.1125   -1.4570 H   0  0  0  0  0  0  0  0  0  0  0  0
   -0.8704    5.2709   -0.1727 H   0  0  0  0  0  0  0  0  0  0  0  0
   -0.4137    2.5474    1.0134 H   0  0  0  0  0  0  0  0  0  0  0  0
   -0.9812    4.7860    2.8076 H   0  0  0  0  0  0  0  0  0  0  0  0
   -2.2643    4.8468    1.5700 H   0  0  0  0  0  0  0  0  0  0  0  0
   -2.0517    3.3636    2.6302 H   0  0  0  0  0  0  0  0  0  0  0  0
    1.4742    4.1519    0.5113 H   0  0  0  0  0  0  0  0  0  0  0  0
    1.1352    4.0803    2.3215 H   0  0  0  0  0  0  0  0  0  0  0  0
    0.4779    5.4130    1.3459 H   0  0  0  0  0  0  0  0  0  0  0  0
    0.1578    2.7788   -1.6184 H   0  0  0  0  0  0  0  0  0  0  0  0
    2.3565    3.5142   -2.3007 H   0  0  0  0  0  0  0  0  0  0  0  0
    1.1660    5.3347   -4.5198 H   0  0  0  0  0  0  0  0  0  0  0  0
    2.4274    4.3258   -6.0486 H   0  0  0  0  0  0  0  0  0  0  0  0
    1.9827    2.7061   -5.4965 H   0  0  0  0  0  0  0  0  0  0  0  0
    3.3530    3.4810   -4.7073 H   0  0  0  0  0  0  0  0  0  0  0  0
   -0.6879    4.0505   -3.4662 H   0  0  0  0  0  0  0  0  0  0  0  0
   -0.4146    3.6622   -5.1784 H   0  0  0  0  0  0  0  0  0  0  0  0
    0.0893    2.5416   -3.8789 H   0  0  0  0  0  0  0  0  0  0  0  0
    1.6391    7.0175   -3.4670 H   0  0  0  0  0  0  0  0  0  0  0  0
    2.8403    6.4048   -4.6577 H   0  0  0  0  0  0  0  0  0  0  0  0
    3.3718    7.4224   -3.3159 H   0  0  0  0  0  0  0  0  0  0  0  0
    6.5168    4.2587   -1.2463 H   0  0  0  0  0  0  0  0  0  0  0  0
    5.8392    5.3939    0.0394 H   0  0  0  0  0  0  0  0  0  0  0  0
    6.8802    1.8927   -0.5583 H   0  0  0  0  0  0  0  0  0  0  0  0
    6.7003    0.1130    1.2081 H   0  0  0  0  0  0  0  0  0  0  0  0
    4.4810    2.9030    3.6171 H   0  0  0  0  0  0  0  0  0  0  0  0
    4.6688    4.5726    1.9094 H   0  0  0  0  0  0  0  0  0  0  0  0
    5.6928    0.2725    4.3678 H   0  0  0  0  0  0  0  0  0  0  0  0
    2.1764   -1.0098    3.3334 H   0  0  0  0  0  0  0  0  0  0  0  0
    3.0463   -2.5913    2.0083 H   0  0  0  0  0  0  0  0  0  0  0  0
    2.7172   -3.3036    3.6698 H   0  0  0  0  0  0  0  0  0  0  0  0
    5.1644   -3.3202    4.1579 H   0  0  0  0  0  0  0  0  0  0  0  0
    5.4692   -2.6134    2.5545 H   0  0  0  0  0  0  0  0  0  0  0  0
    4.0542   -5.2978    2.8478 H   0  0  0  0  0  0  0  0  0  0  0  0
    5.8408   -4.9923    2.6272 H   0  0  0  0  0  0  0  0  0  0  0  0
    4.3637   -3.4084    0.7186 H   0  0  0  0  0  0  0  0  0  0  0  0
    4.2803   -5.8593   -2.1061 H   0  0  0  0  0  0  0  0  0  0  0  0
    3.8452   -4.2147   -1.6202 H   0  0  0  0  0  0  0  0  0  0  0  0
    4.1085   -1.7550    5.6335 H   0  0  0  0  0  0  0  0  0  0  0  0
    1.8394   -2.0110    7.6750 H   0  0  0  0  0  0  0  0  0  0  0  0
    2.1699   -0.0300    9.0852 H   0  0  0  0  0  0  0  0  0  0  0  0
    2.2063    2.0938    8.3528 H   0  0  0  0  0  0  0  0  0  0  0  0
    1.5212    1.4170    6.7529 H   0  0  0  0  0  0  0  0  0  0  0  0
    3.2531    1.7319    6.9923 H   0  0  0  0  0  0  0  0  0  0  0  0
    4.4256    0.0786    9.0848 H   0  0  0  0  0  0  0  0  0  0  0  0
    4.3120   -1.3109    7.9927 H   0  0  0  0  0  0  0  0  0  0  0  0
    4.5448    0.4230    7.3632 H   0  0  0  0  0  0  0  0  0  0  0  0
   -0.0077    0.1118    6.5920 H   0  0  0  0  0  0  0  0  0  0  0  0
   -1.9330    0.1775    7.7129 H   0  0  0  0  0  0  0  0  0  0  0  0
   -2.4213   -1.3443    6.9162 H   0  0  0  0  0  0  0  0  0  0  0  0
   -2.4664   -0.4019    9.8410 H   0  0  0  0  0  0  0  0  0  0  0  0
   -2.7463   -2.1606    9.4585 H   0  0  0  0  0  0  0  0  0  0  0  0
   -4.7998   -1.8388    8.3560 H   0  0  0  0  0  0  0  0  0  0  0  0
   -4.8546   -0.9406    9.8633 H   0  0  0  0  0  0  0  0  0  0  0  0
   -6.0361    0.2475    8.3203 H   0  0  0  0  0  0  0  0  0  0  0  0
   -4.6003    1.2559    8.5400 H   0  0  0  0  0  0  0  0  0  0  0  0
   -3.6777    0.4418    6.3593 H   0  0  0  0  0  0  0  0  0  0  0  0
   -5.1760   -0.5308    6.1165 H   0  0  0  0  0  0  0  0  0  0  0  0
   -7.7138    3.5618    4.6368 H   0  0  0  0  0  0  0  0  0  0  0  0
   -5.5709    4.7950    5.0765 H   0  0  0  0  0  0  0  0  0  0  0  0
  1  2  1  0
  2  3  1  0
  3  4  1  0
  3  5  1  0
  5  6  1  0
  6  7  1  0
  7  8  1  0
  8  9  2  0
  8 10  1  0
 10 11  1  0
 11 12  1  0
 12 13  1  0
 13 14  1  0
 14 15  1  0
 15 16  1  0
 16 17  1  0
 16 18  1  0
 18 19  2  0
 18 20  1  0
 20 21  1  0
 21 22  1  0
 21 23  1  0
 23 24  1  0
 24 25  2  0
 25 26  1  0
 26 27  2  0
 27 28  1  0
 28 29  2  0
 23 30  1  0
 15 31  1  0
 31 32  1  0
  6 33  1  0
 33 34  1  0
  5 35  1  0
 35 36  1  0
 35 37  1  0
 37 38  2  0
 37 39  1  0
 39 40  1  0
 40 41  1  0
 40 42  1  0
 39 43  1  0
 43 44  1  0
 44 45  2  0
 44 46  1  0
 46 47  1  0
 47 48  1  0
 47 49  1  0
 46 50  1  0
 50 51  1  0
 50 52  1  0
 52 53  2  0
 52 54  1  0
 54 55  1  0
 55 56  1  0
 56 57  1  0
 57 58  2  0
 58 59  1  0
 59 60  2  0
 60 61  1  0
 59 62  1  0
 62 63  1  0
 63 64  2  0
 63 65  1  0
 65 66  1  0
 66 67  1  0
 67 68  1  0
 68 69  1  0
 69 70  1  0
 70 71  2  0
 70 72  1  0
 65 73  1  0
 73 74  1  0
 74 75  2  0
 74 76  1  0
 76 77  1  0
 77 78  1  0
 77 79  1  0
 76 80  1  0
 80 81  1  0
 81 82  2  0
 81 83  1  0
 83 84  1  0
 84 85  1  0
 85 86  1  0
 86 87  1  0
 87 88  1  0
 88 89  1  0
 89 90  2  0
 89 91  1  0
 91 92  2  0
 92 93  1  0
 93 94  2  0
 14 10  1  0
 29 24  1  0
 61 56  2  0
 93 88  1  0
  1 95  1  0
  1 96  1  0
  1 97  1  0
  2 98  1  0
  2 99  1  0
  3100  1  1
  4101  1  0
  4102  1  0
  4103  1  0
  5104  1  6
  6105  1  1
  7106  1  0
  7107  1  0
 11108  1  0
 11109  1  0
 12110  1  0
 12111  1  0
 13112  1  0
 13113  1  0
 14114  1  6
 15115  1  6
 16116  1  1
 17117  1  0
 17118  1  0
 17119  1  0
 20120  1  0
 21121  1  1
 22122  1  0
 22123  1  0
 22124  1  0
 23125  1  1
 25126  1  0
 26127  1  0
 27128  1  0
 28129  1  0
 29130  1  0
 30131  1  0
 32132  1  0
 32133  1  0
 32134  1  0
 34135  1  0
 34136  1  0
 34137  1  0
 36138  1  0
 36139  1  0
 36140  1  0
 39141  1  1
 40142  1  0
 41143  1  0
 41144  1  0
 41145  1  0
 42146  1  0
 42147  1  0
 42148  1  0
 43149  1  0
 46150  1  1
 47151  1  0
 48152  1  0
 48153  1  0
 48154  1  0
 49155  1  0
 49156  1  0
 49157  1  0
 51158  1  0
 51159  1  0
 51160  1  0
 55161  1  0
 55162  1  0
 57163  1  0
 58164  1  0
 60165  1  0
 61166  1  0
 62167  1  0
 65168  1  1
 66169  1  0
 66170  1  0
 67171  1  0
 67172  1  0
 68173  1  0
 68174  1  0
 69175  1  0
 72176  1  0
 72177  1  0
 73178  1  0
 76179  1  1
 77180  1  0
 78181  1  0
 78182  1  0
 78183  1  0
 79184  1  0
 79185  1  0
 79186  1  0
 80187  1  0
 83188  1  0
 83189  1  0
 84190  1  0
 84191  1  0
 85192  1  0
 85193  1  0
 86194  1  0
 86195  1  0
 87196  1  0
 87197  1  0
 91198  1  0
 92199  1  0
M  END
$$$$

     RDKit          3D

199202  0  0  0  0  0  0  0  0999 V2000
    1.2192   -1.9444    7.5545 C   0  0  0  0  0  0  0  0  0  0  0  0
    1.9725   -1.5825    6.2847 C   0  0  0  0  0  0  0  0  0  0  0  0
    1.0497   -0.9070    5.2772 C   0  0  2  0  0  0  0  0  0  0  0  0
   -0.0447   -1.8381    4.9464 C   0  0  0  0  0  0  0  0  0  0  0  0
    1.8071   -0.3213    4.0950 C   0  0  1  0  0  0  0  0  0  0  0  0
    0.8791    0.3378    3.0833 C   0  0  1  0  0  0  0  0  0  0  0  0
    0.0072    1.3670    3.5890 C   0  0  0  0  0  0  0  0  0  0  0  0
   -0.9709    2.1602    2.9344 C   0  0  0  0  0  0  0  0  0  0  0  0
   -1.7297    2.8442    3.8661 O   0  0  0  0  0  0  0  0  0  0  0  0
   -1.4711    2.5211    1.6898 N   0  0  0  0  0  0  0  0  0  0  0  0
   -2.6696    3.4427    1.6791 C   0  0  0  0  0  0  0  0  0  0  0  0
   -3.5375    2.7653    0.6690 C   0  0  0  0  0  0  0  0  0  0  0  0
   -2.6229    1.8589   -0.0880 C   0  0  0  0  0  0  0  0  0  0  0  0
   -1.2210    2.3062    0.2948 C   0  0  1  0  0  0  0  0  0  0  0  0
   -0.7152    3.4401   -0.5155 C   0  0  1  0  0  0  0  0  0  0  0  0
   -1.6061    4.4127   -1.1559 C   0  0  1  0  0  0  0  0  0  0  0  0
   -0.7337    5.5034   -1.8969 C   0  0  0  0  0  0  0  0  0  0  0  0
   -2.3366    3.8355   -2.3680 C   0  0  0  0  0  0  0  0  0  0  0  0
   -1.6329    3.0772   -3.1098 O   0  0  0  0  0  0  0  0  0  0  0  0
   -3.6777    4.1458   -2.6033 N   0  0  0  0  0  0  0  0  0  0  0  0
   -4.5600    3.7626   -3.6465 C   0  0  2  0  0  0  0  0  0  0  0  0
   -5.9885    3.6164   -3.2454 C   0  0  0  0  0  0  0  0  0  0  0  0
   -4.1656    2.4996   -4.4052 C   0  0  1  0  0  0  0  0  0  0  0  0
   -3.1044    2.6619   -5.3927 C   0  0  0  0  0  0  0  0  0  0  0  0
   -2.4567    1.4905   -5.8168 C   0  0  0  0  0  0  0  0  0  0  0  0
   -1.4655    1.5273   -6.7772 C   0  0  0  0  0  0  0  0  0  0  0  0
   -1.0534    2.6997   -7.3700 C   0  0  0  0  0  0  0  0  0  0  0  0
   -1.6848    3.8558   -6.9576 C   0  0  0  0  0  0  0  0  0  0  0  0
   -2.6929    3.8317   -5.9869 C   0  0  0  0  0  0  0  0  0  0  0  0
   -4.0031    1.4520   -3.5148 O   0  0  0  0  0  0  0  0  0  0  0  0
    0.4820    3.9891   -0.0341 O   0  0  0  0  0  0  0  0  0  0  0  0
    1.5722    3.6404   -0.8333 C   0  0  0  0  0  0  0  0  0  0  0  0
    1.6585    0.6853    2.0132 O   0  0  0  0  0  0  0  0  0  0  0  0
    1.6237   -0.2139    0.9785 C   0  0  0  0  0  0  0  0  0  0  0  0
    2.9211    0.4648    4.5510 N   0  0  0  0  0  0  0  0  0  0  0  0
    2.7968    1.7392    5.2314 C   0  0  0  0  0  0  0  0  0  0  0  0
    4.2943   -0.0140    4.4225 C   0  0  0  0  0  0  0  0  0  0  0  0
    4.3742   -1.2182    4.0268 O   0  0  0  0  0  0  0  0  0  0  0  0
    5.4687    0.8176    4.7345 C   0  0  1  0  0  0  0  0  0  0  0  0
    6.7558    0.1475    4.5364 C   0  0  0  0  0  0  0  0  0  0  0  0
    7.9483    1.0294    4.8812 C   0  0  0  0  0  0  0  0  0  0  0  0
    7.0700   -0.4720    3.2285 C   0  0  0  0  0  0  0  0  0  0  0  0
    5.3768    2.1812    4.2056 N   0  0  0  0  0  0  0  0  0  0  0  0
    5.0811    2.2576    2.8360 C   0  0  0  0  0  0  0  0  0  0  0  0
    4.9200    1.1179    2.2614 O   0  0  0  0  0  0  0  0  0  0  0  0
    4.9366    3.4068    1.9517 C   0  0  1  0  0  0  0  0  0  0  0  0
    4.7410    4.7476    2.4857 C   0  0  0  0  0  0  0  0  0  0  0  0
    3.5483    5.0176    3.3233 C   0  0  0  0  0  0  0  0  0  0  0  0
    4.5859    5.6809    1.2438 C   0  0  0  0  0  0  0  0  0  0  0  0
    6.1536    3.4105    1.1202 N   0  0  0  0  0  0  0  0  0  0  0  0
    7.3549    3.8683    1.8187 C   0  0  0  0  0  0  0  0  0  0  0  0
    6.2166    3.0291   -0.2218 C   0  0  0  0  0  0  0  0  0  0  0  0
    7.3017    3.1753   -0.8359 O   0  0  0  0  0  0  0  0  0  0  0  0
    5.1695    2.4811   -0.9548 O   0  0  0  0  0  0  0  0  0  0  0  0
    5.3610    2.1285   -2.3322 C   0  0  0  0  0  0  0  0  0  0  0  0
    4.1919    1.4724   -2.9111 C   0  0  0  0  0  0  0  0  0  0  0  0
    3.0965    2.0645   -3.4695 C   0  0  0  0  0  0  0  0  0  0  0  0
    2.0286    1.3791   -4.0198 C   0  0  0  0  0  0  0  0  0  0  0  0
    2.0687    0.0006   -4.0077 C   0  0  0  0  0  0  0  0  0  0  0  0
    3.1701   -0.6478   -3.4468 C   0  0  0  0  0  0  0  0  0  0  0  0
    4.2066    0.0747   -2.9106 C   0  0  0  0  0  0  0  0  0  0  0  0
    1.0598   -0.8485   -4.5137 N   0  0  0  0  0  0  0  0  0  0  0  0
    0.0298   -1.3398   -3.7010 C   0  0  0  0  0  0  0  0  0  0  0  0
    0.0623   -0.9402   -2.4711 O   0  0  0  0  0  0  0  0  0  0  0  0
   -1.0618   -2.2328   -4.0477 C   0  0  1  0  0  0  0  0  0  0  0  0
   -0.5489   -3.6428   -4.2539 C   0  0  0  0  0  0  0  0  0  0  0  0
    0.4507   -3.7559   -5.3439 C   0  0  0  0  0  0  0  0  0  0  0  0
   -0.1366   -3.3546   -6.6594 C   0  0  0  0  0  0  0  0  0  0  0  0
    0.9229   -3.5025   -7.6703 N   0  0  0  0  0  0  0  0  0  0  0  0
    1.5299   -4.7481   -7.9458 C   0  0  0  0  0  0  0  0  0  0  0  0
    1.2609   -5.8285   -7.3973 O   0  0  0  0  0  0  0  0  0  0  0  0
    2.5578   -4.7913   -8.9563 N   0  0  0  0  0  0  0  0  0  0  0  0
   -2.0279   -2.3235   -2.9080 N   0  0  0  0  0  0  0  0  0  0  0  0
   -3.3990   -2.2417   -3.0529 C   0  0  0  0  0  0  0  0  0  0  0  0
   -3.8586   -2.0536   -4.2306 O   0  0  0  0  0  0  0  0  0  0  0  0
   -4.4328   -2.3599   -1.9929 C   0  0  1  0  0  0  0  0  0  0  0  0
   -5.0862   -3.7383   -2.3288 C   0  0  0  0  0  0  0  0  0  0  0  0
   -6.2253   -4.0991   -1.4336 C   0  0  0  0  0  0  0  0  0  0  0  0
   -4.0366   -4.8288   -2.3853 C   0  0  0  0  0  0  0  0  0  0  0  0
   -3.7958   -2.4066   -0.7240 N   0  0  0  0  0  0  0  0  0  0  0  0
   -4.4166   -2.3947    0.5583 C   0  0  0  0  0  0  0  0  0  0  0  0
   -5.6358   -2.3527    0.7681 O   0  0  0  0  0  0  0  0  0  0  0  0
   -3.5095   -2.4454    1.7345 C   0  0  0  0  0  0  0  0  0  0  0  0
   -3.1795   -3.7856    2.1968 C   0  0  0  0  0  0  0  0  0  0  0  0
   -4.2405   -4.7662    2.5641 C   0  0  0  0  0  0  0  0  0  0  0  0
   -3.5343   -6.0920    2.9496 C   0  0  0  0  0  0  0  0  0  0  0  0
   -4.4571   -7.1989    3.2881 C   0  0  0  0  0  0  0  0  0  0  0  0
   -3.6751   -8.4134    3.6186 N   0  0  0  0  0  0  0  0  0  0  0  0
   -3.2208   -8.8107    4.9101 C   0  0  0  0  0  0  0  0  0  0  0  0
   -3.4318   -8.1662    5.9816 O   0  0  0  0  0  0  0  0  0  0  0  0
   -2.4865  -10.0730    4.7406 C   0  0  0  0  0  0  0  0  0  0  0  0
   -2.4861  -10.4296    3.4603 C   0  0  0  0  0  0  0  0  0  0  0  0
   -3.2246   -9.4140    2.7068 C   0  0  0  0  0  0  0  0  0  0  0  0
   -3.4413   -9.3970    1.4591 O   0  0  0  0  0  0  0  0  0  0  0  0
    0.3300   -1.2758    7.5878 H   0  0  0  0  0  0  0  0  0  0  0  0
    1.8251   -1.8434    8.4713 H   0  0  0  0  0  0  0  0  0  0  0  0
    0.7872   -2.9958    7.4802 H   0  0  0  0  0  0  0  0  0  0  0  0
    2.8599   -0.9188    6.5394 H   0  0  0  0  0  0  0  0  0  0  0  0
    2.4288   -2.5147    5.9079 H   0  0  0  0  0  0  0  0  0  0  0  0
    0.6142   -0.0458    5.8559 H   0  0  0  0  0  0  0  0  0  0  0  0
   -0.3249   -2.3588    5.9127 H   0  0  0  0  0  0  0  0  0  0  0  0
   -0.9939   -1.3540    4.6532 H   0  0  0  0  0  0  0  0  0  0  0  0
    0.2317   -2.6802    4.2857 H   0  0  0  0  0  0  0  0  0  0  0  0
    2.1781   -1.2190    3.5984 H   0  0  0  0  0  0  0  0  0  0  0  0
    0.2847   -0.5537    2.7273 H   0  0  0  0  0  0  0  0  0  0  0  0
   -0.5302    0.9835    4.5587 H   0  0  0  0  0  0  0  0  0  0  0  0
    0.6543    2.1760    4.1385 H   0  0  0  0  0  0  0  0  0  0  0  0
   -3.1833    3.3551    2.6847 H   0  0  0  0  0  0  0  0  0  0  0  0
   -2.3927    4.4530    1.4758 H   0  0  0  0  0  0  0  0  0  0  0  0
   -4.1355    3.4634    0.0540 H   0  0  0  0  0  0  0  0  0  0  0  0
   -4.3596    2.1694    1.1981 H   0  0  0  0  0  0  0  0  0  0  0  0
   -2.8210    1.7117   -1.1246 H   0  0  0  0  0  0  0  0  0  0  0  0
   -2.7573    0.8426    0.3879 H   0  0  0  0  0  0  0  0  0  0  0  0
   -0.5765    1.4044    0.1245 H   0  0  0  0  0  0  0  0  0  0  0  0
   -0.2711    2.8912   -1.4706 H   0  0  0  0  0  0  0  0  0  0  0  0
   -2.3082    5.0077   -0.6322 H   0  0  0  0  0  0  0  0  0  0  0  0
   -1.3843    6.3659   -2.1369 H   0  0  0  0  0  0  0  0  0  0  0  0
    0.0380    5.8572   -1.2163 H   0  0  0  0  0  0  0  0  0  0  0  0
   -0.3964    5.1027   -2.8710 H   0  0  0  0  0  0  0  0  0  0  0  0
   -4.1256    4.8118   -1.8694 H   0  0  0  0  0  0  0  0  0  0  0  0
   -4.4994    4.5476   -4.4698 H   0  0  0  0  0  0  0  0  0  0  0  0
   -6.4919    2.9433   -3.9736 H   0  0  0  0  0  0  0  0  0  0  0  0
   -6.5243    4.5775   -3.3169 H   0  0  0  0  0  0  0  0  0  0  0  0
   -6.1087    3.1165   -2.2564 H   0  0  0  0  0  0  0  0  0  0  0  0
   -5.0853    2.1860   -5.0251 H   0  0  0  0  0  0  0  0  0  0  0  0
   -2.7031    0.5193   -5.4216 H   0  0  0  0  0  0  0  0  0  0  0  0
   -0.9781    0.6117   -7.0997 H   0  0  0  0  0  0  0  0  0  0  0  0
   -0.2722    2.6674   -8.1083 H   0  0  0  0  0  0  0  0  0  0  0  0
   -1.3876    4.7996   -7.4136 H   0  0  0  0  0  0  0  0  0  0  0  0
   -3.1191    4.7827   -5.7513 H   0  0  0  0  0  0  0  0  0  0  0  0
   -4.0438    0.5570   -3.9102 H   0  0  0  0  0  0  0  0  0  0  0  0
    2.5180    4.0637   -0.4601 H   0  0  0  0  0  0  0  0  0  0  0  0
    1.7389    2.5374   -0.8823 H   0  0  0  0  0  0  0  0  0  0  0  0
    1.4091    3.9228   -1.9081 H   0  0  0  0  0  0  0  0  0  0  0  0
    2.2273    0.1035    0.0927 H   0  0  0  0  0  0  0  0  0  0  0  0
    2.1084   -1.1782    1.3335 H   0  0  0  0  0  0  0  0  0  0  0  0
    0.5961   -0.4107    0.6589 H   0  0  0  0  0  0  0  0  0  0  0  0
    1.9695    1.7457    5.9809 H   0  0  0  0  0  0  0  0  0  0  0  0
    2.8454    2.6206    4.5790 H   0  0  0  0  0  0  0  0  0  0  0  0
    3.6806    1.9263    5.9359 H   0  0  0  0  0  0  0  0  0  0  0  0
    5.3603    0.9475    5.8823 H   0  0  0  0  0  0  0  0  0  0  0  0
    6.8027   -0.6918    5.3073 H   0  0  0  0  0  0  0  0  0  0  0  0
    7.9316    2.0091    4.4345 H   0  0  0  0  0  0  0  0  0  0  0  0
    8.8934    0.5255    4.6125 H   0  0  0  0  0  0  0  0  0  0  0  0
    8.0139    1.1987    5.9970 H   0  0  0  0  0  0  0  0  0  0  0  0
    6.3203   -1.1246    2.7876 H   0  0  0  0  0  0  0  0  0  0  0  0
    7.9670   -1.1566    3.4124 H   0  0  0  0  0  0  0  0  0  0  0  0
    7.4765    0.2421    2.4713 H   0  0  0  0  0  0  0  0  0  0  0  0
    5.4996    3.0401    4.7494 H   0  0  0  0  0  0  0  0  0  0  0  0
    4.1050    3.1609    1.1950 H   0  0  0  0  0  0  0  0  0  0  0  0
    5.6637    5.1068    3.0467 H   0  0  0  0  0  0  0  0  0  0  0  0
    2.6239    4.5103    2.9922 H   0  0  0  0  0  0  0  0  0  0  0  0
    3.7220    4.8312    4.4220 H   0  0  0  0  0  0  0  0  0  0  0  0
    3.2630    6.1214    3.2987 H   0  0  0  0  0  0  0  0  0  0  0  0
    3.5093    5.6221    1.0177 H   0  0  0  0  0  0  0  0  0  0  0  0
    5.1689    5.3144    0.4021 H   0  0  0  0  0  0  0  0  0  0  0  0
    4.8197    6.6843    1.6230 H   0  0  0  0  0  0  0  0  0  0  0  0
    8.2578    3.4246    1.3705 H   0  0  0  0  0  0  0  0  0  0  0  0
    7.2864    3.6379    2.8896 H   0  0  0  0  0  0  0  0  0  0  0  0
    7.4737    4.9764    1.7336 H   0  0  0  0  0  0  0  0  0  0  0  0
    5.6651    3.0284   -2.8767 H   0  0  0  0  0  0  0  0  0  0  0  0
    6.2292    1.4267   -2.3357 H   0  0  0  0  0  0  0  0  0  0  0  0
    3.0758    3.1524   -3.4725 H   0  0  0  0  0  0  0  0  0  0  0  0
    1.1813    1.8918   -4.4544 H   0  0  0  0  0  0  0  0  0  0  0  0
    3.2262   -1.7284   -3.4256 H   0  0  0  0  0  0  0  0  0  0  0  0
    5.0301   -0.4900   -2.4952 H   0  0  0  0  0  0  0  0  0  0  0  0
    1.0765   -1.0896   -5.5144 H   0  0  0  0  0  0  0  0  0  0  0  0
   -1.6282   -1.9255   -4.9139 H   0  0  0  0  0  0  0  0  0  0  0  0
   -0.0471   -4.0131   -3.3172 H   0  0  0  0  0  0  0  0  0  0  0  0
   -1.3919   -4.3404   -4.5315 H   0  0  0  0  0  0  0  0  0  0  0  0
    1.4429   -3.3154   -5.1157 H   0  0  0  0  0  0  0  0  0  0  0  0
    0.7036   -4.8830   -5.3800 H   0  0  0  0  0  0  0  0  0  0  0  0
   -0.5688   -2.3651   -6.6890 H   0  0  0  0  0  0  0  0  0  0  0  0
   -0.9239   -4.1289   -6.9164 H   0  0  0  0  0  0  0  0  0  0  0  0
    1.2540   -2.6571   -8.2268 H   0  0  0  0  0  0  0  0  0  0  0  0
    3.4446   -4.2534   -8.8677 H   0  0  0  0  0  0  0  0  0  0  0  0
    2.3235   -5.4085   -9.7845 H   0  0  0  0  0  0  0  0  0  0  0  0
   -1.5132   -2.4585   -1.9988 H   0  0  0  0  0  0  0  0  0  0  0  0
   -5.2580   -1.6582   -2.1133 H   0  0  0  0  0  0  0  0  0  0  0  0
   -5.4682   -3.6124   -3.3614 H   0  0  0  0  0  0  0  0  0  0  0  0
   -6.9299   -4.8506   -1.9438 H   0  0  0  0  0  0  0  0  0  0  0  0
   -5.9793   -4.6206   -0.4982 H   0  0  0  0  0  0  0  0  0  0  0  0
   -6.9411   -3.2226   -1.3014 H   0  0  0  0  0  0  0  0  0  0  0  0
   -4.0970   -5.3932   -3.3411 H   0  0  0  0  0  0  0  0  0  0  0  0
   -2.9984   -4.4452   -2.3091 H   0  0  0  0  0  0  0  0  0  0  0  0
   -4.2623   -5.6313   -1.6080 H   0  0  0  0  0  0  0  0  0  0  0  0
   -2.7334   -2.4580   -0.6801 H   0  0  0  0  0  0  0  0  0  0  0  0
   -2.6364   -1.7935    1.5287 H   0  0  0  0  0  0  0  0  0  0  0  0
   -4.0551   -1.8970    2.5683 H   0  0  0  0  0  0  0  0  0  0  0  0
   -2.4328   -4.3339    1.5818 H   0  0  0  0  0  0  0  0  0  0  0  0
   -2.5828   -3.6421    3.1798 H   0  0  0  0  0  0  0  0  0  0  0  0
   -4.9439   -4.9937    1.7719 H   0  0  0  0  0  0  0  0  0  0  0  0
   -4.8268   -4.5222    3.4871 H   0  0  0  0  0  0  0  0  0  0  0  0
   -2.9303   -5.8311    3.8700 H   0  0  0  0  0  0  0  0  0  0  0  0
   -2.8499   -6.3881    2.1400 H   0  0  0  0  0  0  0  0  0  0  0  0
   -5.0719   -7.0117    4.2014 H   0  0  0  0  0  0  0  0  0  0  0  0
   -5.1442   -7.4366    2.4417 H   0  0  0  0  0  0  0  0  0  0  0  0
   -1.9975  -10.6704    5.5252 H   0  0  0  0  0  0  0  0  0  0  0  0
   -2.0092  -11.3393    3.0993 H   0  0  0  0  0  0  0  0  0  0  0  0
  1  2  1  0
  2  3  1  0
  3  4  1  0
  3  5  1  0
  5  6  1  0
  6  7  1  0
  7  8  1  0
  8  9  2  0
  8 10  1  0
 10 11  1  0
 11 12  1  0
 12 13  1  0
 13 14  1  0
 14 15  1  0
 15 16  1  0
 16 17  1  0
 16 18  1  0
 18 19  2  0
 18 20  1  0
 20 21  1  0
 21 22  1  0
 21 23  1  0
 23 24  1  0
 24 25  2  0
 25 26  1  0
 26 27  2  0
 27 28  1  0
 28 29  2  0
 23 30  1  0
 15 31  1  0
 31 32  1  0
  6 33  1  0
 33 34  1  0
  5 35  1  0
 35 36  1  0
 35 37  1  0
 37 38  2  0
 37 39  1  0
 39 40  1  0
 40 41  1  0
 40 42  1  0
 39 43  1  0
 43 44  1  0
 44 45  2  0
 44 46  1  0
 46 47  1  0
 47 48  1  0
 47 49  1  0
 46 50  1  0
 50 51  1  0
 50 52  1  0
 52 53  2  0
 52 54  1  0
 54 55  1  0
 55 56  1  0
 56 57  1  0
 57 58  2  0
 58 59  1  0
 59 60  2  0
 60 61  1  0
 59 62  1  0
 62 63  1  0
 63 64  2  0
 63 65  1  0
 65 66  1  0
 66 67  1  0
 67 68  1  0
 68 69  1  0
 69 70  1  0
 70 71  2  0
 70 72  1  0
 65 73  1  0
 73 74  1  0
 74 75  2  0
 74 76  1  0
 76 77  1  0
 77 78  1  0
 77 79  1  0
 76 80  1  0
 80 81  1  0
 81 82  2  0
 81 83  1  0
 83 84  1  0
 84 85  1  0
 85 86  1  0
 86 87  1  0
 87 88  1  0
 88 89  1  0
 89 90  2  0
 89 91  1  0
 91 92  2  0
 92 93  1  0
 93 94  2  0
 14 10  1  0
 29 24  1  0
 61 56  2  0
 93 88  1  0
  1 95  1  0
  1 96  1  0
  1 97  1  0
  2 98  1  0
  2 99  1  0
  3100  1  1
  4101  1  0
  4102  1  0
  4103  1  0
  5104  1  6
  6105  1  6
  7106  1  0
  7107  1  0
 11108  1  0
 11109  1  0
 12110  1  0
 12111  1  0
 13112  1  0
 13113  1  0
 14114  1  1
 15115  1  6
 16116  1  1
 17117  1  0
 17118  1  0
 17119  1  0
 20120  1  0
 21121  1  6
 22122  1  0
 22123  1  0
 22124  1  0
 23125  1  6
 25126  1  0
 26127  1  0
 27128  1  0
 28129  1  0
 29130  1  0
 30131  1  0
 32132  1  0
 32133  1  0
 32134  1  0
 34135  1  0
 34136  1  0
 34137  1  0
 36138  1  0
 36139  1  0
 36140  1  0
 39141  1  1
 40142  1  0
 41143  1  0
 41144  1  0
 41145  1  0
 42146  1  0
 42147  1  0
 42148  1  0
 43149  1  0
 46150  1  6
 47151  1  0
 48152  1  0
 48153  1  0
 48154  1  0
 49155  1  0
 49156  1  0
 49157  1  0
 51158  1  0
 51159  1  0
 51160  1  0
 55161  1  0
 55162  1  0
 57163  1  0
 58164  1  0
 60165  1  0
 61166  1  0
 62167  1  0
 65168  1  6
 66169  1  0
 66170  1  0
 67171  1  0
 67172  1  0
 68173  1  0
 68174  1  0
 69175  1  0
 72176  1  0
 72177  1  0
 73178  1  0
 76179  1  1
 77180  1  0
 78181  1  0
 78182  1  0
 78183  1  0
 79184  1  0
 79185  1  0
 79186  1  0
 80187  1  0
 83188  1  0
 83189  1  0
 84190  1  0
 84191  1  0
 85192  1  0
 85193  1  0
 86194  1  0
 86195  1  0
 87196  1  0
 87197  1  0
 91198  1  0
 92199  1  0
M  END
$$$$

     RDKit          3D

199202  0  0  0  0  0  0  0  0999 V2000
   -1.0106   -6.4466    1.2747 C   0  0  0  0  0  0  0  0  0  0  0  0
    0.4976   -6.3944    0.9842 C   0  0  0  0  0  0  0  0  0  0  0  0
    0.6872   -6.3850   -0.5323 C   0  0  2  0  0  0  0  0  0  0  0  0
    0.1082   -7.6254   -1.0597 C   0  0  0  0  0  0  0  0  0  0  0  0
    2.0259   -5.9406   -0.9881 C   0  0  1  0  0  0  0  0  0  0  0  0
    3.2360   -6.6632   -0.6201 C   0  0  1  0  0  0  0  0  0  0  0  0
    4.3798   -5.8169    0.0104 C   0  0  0  0  0  0  0  0  0  0  0  0
    4.0237   -5.3133    1.3586 C   0  0  0  0  0  0  0  0  0  0  0  0
    3.8778   -6.2627    2.2162 O   0  0  0  0  0  0  0  0  0  0  0  0
    3.8409   -4.0294    1.8193 N   0  0  0  0  0  0  0  0  0  0  0  0
    3.8264   -2.8658    0.8567 C   0  0  0  0  0  0  0  0  0  0  0  0
    2.4956   -2.2641    1.3217 C   0  0  0  0  0  0  0  0  0  0  0  0
    2.3461   -2.6468    2.8072 C   0  0  0  0  0  0  0  0  0  0  0  0
    3.6772   -3.3215    3.0544 C   0  0  1  0  0  0  0  0  0  0  0  0
    3.9350   -3.8740    4.3661 C   0  0  1  0  0  0  0  0  0  0  0  0
    3.3762   -2.8168    5.3646 C   0  0  1  0  0  0  0  0  0  0  0  0
    3.5738   -3.3200    6.7850 C   0  0  0  0  0  0  0  0  0  0  0  0
    3.9748   -1.4877    5.2060 C   0  0  0  0  0  0  0  0  0  0  0  0
    4.9180   -1.1301    4.5037 O   0  0  0  0  0  0  0  0  0  0  0  0
    3.3564   -0.4333    6.0026 N   0  0  0  0  0  0  0  0  0  0  0  0
    3.8233    0.9232    5.9558 C   0  0  2  0  0  0  0  0  0  0  0  0
    4.4552    1.3873    7.2482 C   0  0  0  0  0  0  0  0  0  0  0  0
    2.7938    1.9012    5.4772 C   0  0  1  0  0  0  0  0  0  0  0  0
    1.5519    1.9070    6.2847 C   0  0  0  0  0  0  0  0  0  0  0  0
    0.3959    1.2801    5.8310 C   0  0  0  0  0  0  0  0  0  0  0  0
   -0.7434    1.2963    6.5921 C   0  0  0  0  0  0  0  0  0  0  0  0
   -0.8194    1.9178    7.8293 C   0  0  0  0  0  0  0  0  0  0  0  0
    0.3399    2.5456    8.2822 C   0  0  0  0  0  0  0  0  0  0  0  0
    1.4968    2.5337    7.5150 C   0  0  0  0  0  0  0  0  0  0  0  0
    3.3862    3.1846    5.4870 O   0  0  0  0  0  0  0  0  0  0  0  0
    3.2199   -5.0127    4.6867 O   0  0  0  0  0  0  0  0  0  0  0  0
    3.9696   -5.9968    5.3359 C   0  0  0  0  0  0  0  0  0  0  0  0
    2.9641   -7.3996    0.6265 O   0  0  0  0  0  0  0  0  0  0  0  0
    3.3359   -8.7261    0.4072 C   0  0  0  0  0  0  0  0  0  0  0  0
    1.9304   -5.4770   -2.3772 N   0  0  0  0  0  0  0  0  0  0  0  0
    1.8877   -6.6636   -3.3145 C   0  0  0  0  0  0  0  0  0  0  0  0
    1.9056   -4.2563   -2.9882 C   0  0  0  0  0  0  0  0  0  0  0  0
    1.6285   -4.2783   -4.2855 O   0  0  0  0  0  0  0  0  0  0  0  0
    2.1185   -2.8924   -2.5150 C   0  0  1  0  0  0  0  0  0  0  0  0
    3.6026   -2.5754   -2.8270 C   0  0  0  0  0  0  0  0  0  0  0  0
    3.8930   -2.6425   -4.3158 C   0  0  0  0  0  0  0  0  0  0  0  0
    4.0614   -1.3018   -2.2113 C   0  0  0  0  0  0  0  0  0  0  0  0
    1.4113   -1.9095   -3.3783 N   0  0  0  0  0  0  0  0  0  0  0  0
    0.6291   -0.9497   -2.7040 C   0  0  0  0  0  0  0  0  0  0  0  0
    0.6147   -1.0474   -1.4259 O   0  0  0  0  0  0  0  0  0  0  0  0
   -0.1519    0.1220   -3.2829 C   0  0  1  0  0  0  0  0  0  0  0  0
   -0.0203    1.3272   -2.3625 C   0  0  0  0  0  0  0  0  0  0  0  0
   -0.7879    2.5073   -2.8602 C   0  0  0  0  0  0  0  0  0  0  0  0
    1.4046    1.7389   -2.1055 C   0  0  0  0  0  0  0  0  0  0  0  0
   -0.0456    0.4500   -4.6493 N   0  0  0  0  0  0  0  0  0  0  0  0
    1.1340    0.8985   -5.3509 C   0  0  0  0  0  0  0  0  0  0  0  0
   -1.2678    0.3199   -5.4368 C   0  0  0  0  0  0  0  0  0  0  0  0
   -2.2240   -0.1635   -4.7730 O   0  0  0  0  0  0  0  0  0  0  0  0
   -1.3550    0.6932   -6.7495 O   0  0  0  0  0  0  0  0  0  0  0  0
   -2.5270    0.5913   -7.5585 C   0  0  0  0  0  0  0  0  0  0  0  0
   -3.6494    1.3526   -6.9072 C   0  0  0  0  0  0  0  0  0  0  0  0
   -3.7964    2.7176   -7.0232 C   0  0  0  0  0  0  0  0  0  0  0  0
   -4.8485    3.3567   -6.3341 C   0  0  0  0  0  0  0  0  0  0  0  0
   -5.6940    2.6024   -5.5702 C   0  0  0  0  0  0  0  0  0  0  0  0
   -5.5114    1.2142   -5.4828 C   0  0  0  0  0  0  0  0  0  0  0  0
   -4.5025    0.5644   -6.1386 C   0  0  0  0  0  0  0  0  0  0  0  0
   -6.7790    3.0925   -4.7897 N   0  0  0  0  0  0  0  0  0  0  0  0
   -6.3770    3.6289   -3.5007 C   0  0  0  0  0  0  0  0  0  0  0  0
   -5.0913    3.5743   -3.3715 O   0  0  0  0  0  0  0  0  0  0  0  0
   -7.2863    4.1548   -2.5047 C   0  0  1  0  0  0  0  0  0  0  0  0
   -7.9745    3.2667   -1.5538 C   0  0  0  0  0  0  0  0  0  0  0  0
   -8.8773    2.1857   -1.8918 C   0  0  0  0  0  0  0  0  0  0  0  0
   -8.3705    0.9916   -2.6372 C   0  0  0  0  0  0  0  0  0  0  0  0
   -7.2731    0.3450   -1.9269 N   0  0  0  0  0  0  0  0  0  0  0  0
   -6.6315   -0.8327   -2.3650 C   0  0  0  0  0  0  0  0  0  0  0  0
   -6.9511   -1.4580   -3.4131 O   0  0  0  0  0  0  0  0  0  0  0  0
   -5.5351   -1.4197   -1.6264 N   0  0  0  0  0  0  0  0  0  0  0  0
   -6.4306    5.0228   -1.6224 N   0  0  0  0  0  0  0  0  0  0  0  0
   -5.3237    4.5377   -0.9197 C   0  0  0  0  0  0  0  0  0  0  0  0
   -4.9009    3.3588   -0.9268 O   0  0  0  0  0  0  0  0  0  0  0  0
   -4.5674    5.5088   -0.0795 C   0  0  1  0  0  0  0  0  0  0  0  0
   -5.4714    6.0003    1.0461 C   0  0  0  0  0  0  0  0  0  0  0  0
   -5.9418    4.8898    1.9274 C   0  0  0  0  0  0  0  0  0  0  0  0
   -4.7306    7.0013    1.9135 C   0  0  0  0  0  0  0  0  0  0  0  0
   -3.3751    4.9773    0.5109 N   0  0  0  0  0  0  0  0  0  0  0  0
   -2.1644    5.7092    0.2716 C   0  0  0  0  0  0  0  0  0  0  0  0
   -2.1411    6.7675   -0.4174 O   0  0  0  0  0  0  0  0  0  0  0  0
   -0.8386    5.2711    0.8195 C   0  0  0  0  0  0  0  0  0  0  0  0
    0.1804    6.2897    0.3445 C   0  0  0  0  0  0  0  0  0  0  0  0
    1.5811    6.0057    0.7993 C   0  0  0  0  0  0  0  0  0  0  0  0
    2.4569    7.1182    0.2246 C   0  0  0  0  0  0  0  0  0  0  0  0
    3.8952    6.9994    0.5904 C   0  0  0  0  0  0  0  0  0  0  0  0
    4.1044    7.0484    2.0185 N   0  0  0  0  0  0  0  0  0  0  0  0
    4.3253    8.2082    2.8250 C   0  0  0  0  0  0  0  0  0  0  0  0
    4.3498    9.3791    2.3421 O   0  0  0  0  0  0  0  0  0  0  0  0
    4.5024    7.8086    4.2084 C   0  0  0  0  0  0  0  0  0  0  0  0
    4.3990    6.4766    4.2716 C   0  0  0  0  0  0  0  0  0  0  0  0
    4.1504    5.9548    2.9273 C   0  0  0  0  0  0  0  0  0  0  0  0
    3.9943    4.7655    2.5573 O   0  0  0  0  0  0  0  0  0  0  0  0
   -1.1600   -5.8708    2.2135 H   0  0  0  0  0  0  0  0  0  0  0  0
   -1.5796   -5.9748    0.4509 H   0  0  0  0  0  0  0  0  0  0  0  0
   -1.2750   -7.4838    1.4675 H   0  0  0  0  0  0  0  0  0  0  0  0
    0.8818   -5.4460    1.3680 H   0  0  0  0  0  0  0  0  0  0  0  0
    0.9012   -7.2835    1.4743 H   0  0  0  0  0  0  0  0  0  0  0  0
   -0.0066   -5.5165   -0.8387 H   0  0  0  0  0  0  0  0  0  0  0  0
   -0.5056   -8.1622   -0.2712 H   0  0  0  0  0  0  0  0  0  0  0  0
   -0.6808   -7.3757   -1.8252 H   0  0  0  0  0  0  0  0  0  0  0  0
    0.7913   -8.3339   -1.5585 H   0  0  0  0  0  0  0  0  0  0  0  0
    2.1276   -4.9083   -0.4475 H   0  0  0  0  0  0  0  0  0  0  0  0
    3.6373   -7.3348   -1.3183 H   0  0  0  0  0  0  0  0  0  0  0  0
    4.7345   -5.0402   -0.6734 H   0  0  0  0  0  0  0  0  0  0  0  0
    5.2052   -6.5489    0.1457 H   0  0  0  0  0  0  0  0  0  0  0  0
    4.6900   -2.2454    1.1571 H   0  0  0  0  0  0  0  0  0  0  0  0
    3.8335   -3.2337   -0.1442 H   0  0  0  0  0  0  0  0  0  0  0  0
    2.4531   -1.1805    1.1945 H   0  0  0  0  0  0  0  0  0  0  0  0
    1.6778   -2.8078    0.7683 H   0  0  0  0  0  0  0  0  0  0  0  0
    1.5683   -3.4238    2.9135 H   0  0  0  0  0  0  0  0  0  0  0  0
    2.1771   -1.7516    3.4211 H   0  0  0  0  0  0  0  0  0  0  0  0
    4.4649   -2.4663    2.9183 H   0  0  0  0  0  0  0  0  0  0  0  0
    5.0139   -3.9992    4.6306 H   0  0  0  0  0  0  0  0  0  0  0  0
    2.2936   -2.7691    5.1721 H   0  0  0  0  0  0  0  0  0  0  0  0
    3.2914   -2.4202    7.4219 H   0  0  0  0  0  0  0  0  0  0  0  0
    2.8133   -4.0707    7.0684 H   0  0  0  0  0  0  0  0  0  0  0  0
    4.6065   -3.5260    7.0518 H   0  0  0  0  0  0  0  0  0  0  0  0
    2.5524   -0.6444    6.6316 H   0  0  0  0  0  0  0  0  0  0  0  0
    4.6569    0.9403    5.2045 H   0  0  0  0  0  0  0  0  0  0  0  0
    3.8317    1.1747    8.1209 H   0  0  0  0  0  0  0  0  0  0  0  0
    4.6413    2.4726    7.1688 H   0  0  0  0  0  0  0  0  0  0  0  0
    5.4570    0.9064    7.2999 H   0  0  0  0  0  0  0  0  0  0  0  0
    2.5698    1.7122    4.3955 H   0  0  0  0  0  0  0  0  0  0  0  0
    0.4432    0.7929    4.8700 H   0  0  0  0  0  0  0  0  0  0  0  0
   -1.6132    0.7775    6.1636 H   0  0  0  0  0  0  0  0  0  0  0  0
   -1.7382    1.9058    8.3956 H   0  0  0  0  0  0  0  0  0  0  0  0
    0.2954    3.0350    9.2440 H   0  0  0  0  0  0  0  0  0  0  0  0
    2.3537    3.0444    7.9334 H   0  0  0  0  0  0  0  0  0  0  0  0
    3.0264    3.7289    4.7158 H   0  0  0  0  0  0  0  0  0  0  0  0
    3.2247   -6.8360    5.4976 H   0  0  0  0  0  0  0  0  0  0  0  0
    4.7763   -6.4285    4.7116 H   0  0  0  0  0  0  0  0  0  0  0  0
    4.3053   -5.7428    6.3440 H   0  0  0  0  0  0  0  0  0  0  0  0
    2.7660   -9.1885   -0.4250 H   0  0  0  0  0  0  0  0  0  0  0  0
    4.4083   -8.8924    0.3346 H   0  0  0  0  0  0  0  0  0  0  0  0
    2.9747   -9.2831    1.3255 H   0  0  0  0  0  0  0  0  0  0  0  0
    0.8839   -6.9585   -3.5483 H   0  0  0  0  0  0  0  0  0  0  0  0
    2.4804   -7.4852   -2.9527 H   0  0  0  0  0  0  0  0  0  0  0  0
    2.3851   -6.3317   -4.2730 H   0  0  0  0  0  0  0  0  0  0  0  0
    1.9637   -2.6911   -1.4735 H   0  0  0  0  0  0  0  0  0  0  0  0
    4.2214   -3.4125   -2.3997 H   0  0  0  0  0  0  0  0  0  0  0  0
    3.7184   -3.6226   -4.7690 H   0  0  0  0  0  0  0  0  0  0  0  0
    5.0087   -2.4673   -4.4753 H   0  0  0  0  0  0  0  0  0  0  0  0
    3.3942   -1.8321   -4.8714 H   0  0  0  0  0  0  0  0  0  0  0  0
    3.3348   -0.7922   -1.5515 H   0  0  0  0  0  0  0  0  0  0  0  0
    4.4325   -0.6385   -3.0329 H   0  0  0  0  0  0  0  0  0  0  0  0
    4.9853   -1.4594   -1.5748 H   0  0  0  0  0  0  0  0  0  0  0  0
    1.4680   -1.9209   -4.4034 H   0  0  0  0  0  0  0  0  0  0  0  0
   -1.2485   -0.1977   -3.1333 H   0  0  0  0  0  0  0  0  0  0  0  0
   -0.4706    1.0714   -1.3610 H   0  0  0  0  0  0  0  0  0  0  0  0
   -0.8511    3.2637   -2.0707 H   0  0  0  0  0  0  0  0  0  0  0  0
   -0.4789    2.8701   -3.8484 H   0  0  0  0  0  0  0  0  0  0  0  0
   -1.8587    2.1590   -2.9963 H   0  0  0  0  0  0  0  0  0  0  0  0
    2.0573    1.3559   -2.9028 H   0  0  0  0  0  0  0  0  0  0  0  0
    1.5066    2.8506   -2.1577 H   0  0  0  0  0  0  0  0  0  0  0  0
    1.7554    1.4532   -1.0919 H   0  0  0  0  0  0  0  0  0  0  0  0
    1.0497    0.7359   -6.4487 H   0  0  0  0  0  0  0  0  0  0  0  0
    1.3218    1.9891   -5.2279 H   0  0  0  0  0  0  0  0  0  0  0  0
    2.0167    0.3096   -5.0448 H   0  0  0  0  0  0  0  0  0  0  0  0
   -2.2920    1.1147   -8.4990 H   0  0  0  0  0  0  0  0  0  0  0  0
   -2.8074   -0.4297   -7.8184 H   0  0  0  0  0  0  0  0  0  0  0  0
   -3.1148    3.2770   -7.6277 H   0  0  0  0  0  0  0  0  0  0  0  0
   -5.0077    4.4131   -6.3887 H   0  0  0  0  0  0  0  0  0  0  0  0
   -6.1886    0.6291   -4.8860 H   0  0  0  0  0  0  0  0  0  0  0  0
   -4.4368   -0.4996   -6.0546 H   0  0  0  0  0  0  0  0  0  0  0  0
   -7.7774    3.0843   -5.0837 H   0  0  0  0  0  0  0  0  0  0  0  0
   -8.0175    4.8519   -2.9805 H   0  0  0  0  0  0  0  0  0  0  0  0
   -7.1892    2.8895   -0.7858 H   0  0  0  0  0  0  0  0  0  0  0  0
   -8.5768    3.9829   -0.8733 H   0  0  0  0  0  0  0  0  0  0  0  0
   -9.8094    2.5212   -2.4417 H   0  0  0  0  0  0  0  0  0  0  0  0
   -9.3375    1.7685   -0.9216 H   0  0  0  0  0  0  0  0  0  0  0  0
   -9.2018    0.1911   -2.5827 H   0  0  0  0  0  0  0  0  0  0  0  0
   -8.1812    1.1770   -3.6935 H   0  0  0  0  0  0  0  0  0  0  0  0
   -6.9144    0.7615   -1.0227 H   0  0  0  0  0  0  0  0  0  0  0  0
   -5.6824   -1.9650   -0.7489 H   0  0  0  0  0  0  0  0  0  0  0  0
   -4.5465   -1.3222   -1.9375 H   0  0  0  0  0  0  0  0  0  0  0  0
   -6.6870    6.0513   -1.5348 H   0  0  0  0  0  0  0  0  0  0  0  0
   -4.2989    6.4203   -0.6453 H   0  0  0  0  0  0  0  0  0  0  0  0
   -6.3302    6.5117    0.6046 H   0  0  0  0  0  0  0  0  0  0  0  0
   -6.9854    4.6137    1.6104 H   0  0  0  0  0  0  0  0  0  0  0  0
   -5.3653    3.9391    1.7789 H   0  0  0  0  0  0  0  0  0  0  0  0
   -6.0275    5.1679    2.9916 H   0  0  0  0  0  0  0  0  0  0  0  0
   -5.4135    7.3687    2.7069 H   0  0  0  0  0  0  0  0  0  0  0  0
   -3.7733    6.6381    2.2891 H   0  0  0  0  0  0  0  0  0  0  0  0
   -4.4947    7.8797    1.2647 H   0  0  0  0  0  0  0  0  0  0  0  0
   -3.3403    4.1170    1.0768 H   0  0  0  0  0  0  0  0  0  0  0  0
   -0.8146    5.2631    1.9169 H   0  0  0  0  0  0  0  0  0  0  0  0
   -0.6399    4.2676    0.4427 H   0  0  0  0  0  0  0  0  0  0  0  0
   -0.1556    7.2895    0.7166 H   0  0  0  0  0  0  0  0  0  0  0  0
    0.1574    6.3317   -0.7563 H   0  0  0  0  0  0  0  0  0  0  0  0
    1.9729    5.0609    0.3921 H   0  0  0  0  0  0  0  0  0  0  0  0
    1.6281    5.9905    1.8964 H   0  0  0  0  0  0  0  0  0  0  0  0
    2.3759    7.0716   -0.8914 H   0  0  0  0  0  0  0  0  0  0  0  0
    2.0232    8.0908    0.5538 H   0  0  0  0  0  0  0  0  0  0  0  0
    4.4323    7.8279    0.0761 H   0  0  0  0  0  0  0  0  0  0  0  0
    4.3075    6.0612    0.1531 H   0  0  0  0  0  0  0  0  0  0  0  0
    4.6763    8.5083    5.0070 H   0  0  0  0  0  0  0  0  0  0  0  0
    4.4920    5.8602    5.1815 H   0  0  0  0  0  0  0  0  0  0  0  0
  1  2  1  0
  2  3  1  0
  3  4  1  0
  3  5  1  0
  5  6  1  0
  6  7  1  0
  7  8  1  0
  8  9  2  0
  8 10  1  0
 10 11  1  0
 11 12  1  0
 12 13  1  0
 13 14  1  0
 14 15  1  0
 15 16  1  0
 16 17  1  0
 16 18  1  0
 18 19  2  0
 18 20  1  0
 20 21  1  0
 21 22  1  0
 21 23  1  0
 23 24  1  0
 24 25  2  0
 25 26  1  0
 26 27  2  0
 27 28  1  0
 28 29  2  0
 23 30  1  0
 15 31  1  0
 31 32  1  0
  6 33  1  0
 33 34  1  0
  5 35  1  0
 35 36  1  0
 35 37  1  0
 37 38  2  0
 37 39  1  0
 39 40  1  0
 40 41  1  0
 40 42  1  0
 39 43  1  0
 43 44  1  0
 44 45  2  0
 44 46  1  0
 46 47  1  0
 47 48  1  0
 47 49  1  0
 46 50  1  0
 50 51  1  0
 50 52  1  0
 52 53  2  0
 52 54  1  0
 54 55  1  0
 55 56  1  0
 56 57  1  0
 57 58  2  0
 58 59  1  0
 59 60  2  0
 60 61  1  0
 59 62  1  0
 62 63  1  0
 63 64  2  0
 63 65  1  0
 65 66  1  0
 66 67  1  0
 67 68  1  0
 68 69  1  0
 69 70  1  0
 70 71  2  0
 70 72  1  0
 65 73  1  0
 73 74  1  0
 74 75  2  0
 74 76  1  0
 76 77  1  0
 77 78  1  0
 77 79  1  0
 76 80  1  0
 80 81  1  0
 81 82  2  0
 81 83  1  0
 83 84  1  0
 84 85  1  0
 85 86  1  0
 86 87  1  0
 87 88  1  0
 88 89  1  0
 89 90  2  0
 89 91  1  0
 91 92  2  0
 92 93  1  0
 93 94  2  0
 14 10  1  0
 29 24  1  0
 61 56  2  0
 93 88  1  0
  1 95  1  0
  1 96  1  0
  1 97  1  0
  2 98  1  0
  2 99  1  0
  3100  1  6
  4101  1  0
  4102  1  0
  4103  1  0
  5104  1  1
  6105  1  6
  7106  1  0
  7107  1  0
 11108  1  0
 11109  1  0
 12110  1  0
 12111  1  0
 13112  1  0
 13113  1  0
 14114  1  6
 15115  1  1
 16116  1  6
 17117  1  0
 17118  1  0
 17119  1  0
 20120  1  0
 21121  1  6
 22122  1  0
 22123  1  0
 22124  1  0
 23125  1  6
 25126  1  0
 26127  1  0
 27128  1  0
 28129  1  0
 29130  1  0
 30131  1  0
 32132  1  0
 32133  1  0
 32134  1  0
 34135  1  0
 34136  1  0
 34137  1  0
 36138  1  0
 36139  1  0
 36140  1  0
 39141  1  1
 40142  1  0
 41143  1  0
 41144  1  0
 41145  1  0
 42146  1  0
 42147  1  0
 42148  1  0
 43149  1  0
 46150  1  6
 47151  1  0
 48152  1  0
 48153  1  0
 48154  1  0
 49155  1  0
 49156  1  0
 49157  1  0
 51158  1  0
 51159  1  0
 51160  1  0
 55161  1  0
 55162  1  0
 57163  1  0
 58164  1  0
 60165  1  0
 61166  1  0
 62167  1  0
 65168  1  6
 66169  1  0
 66170  1  0
 67171  1  0
 67172  1  0
 68173  1  0
 68174  1  0
 69175  1  0
 72176  1  0
 72177  1  0
 73178  1  0
 76179  1  6
 77180  1  0
 78181  1  0
 78182  1  0
 78183  1  0
 79184  1  0
 79185  1  0
 79186  1  0
 80187  1  0
 83188  1  0
 83189  1  0
 84190  1  0
 84191  1  0
 85192  1  0
 85193  1  0
 86194  1  0
 86195  1  0
 87196  1  0
 87197  1  0
 91198  1  0
 92199  1  0
M  END
$$$$

     RDKit          3D

199202  0  0  0  0  0  0  0  0999 V2000
   -1.0844   -3.1743   -1.2118 C   0  0  0  0  0  0  0  0  0  0  0  0
    0.1866   -2.9398   -0.4957 C   0  0  0  0  0  0  0  0  0  0  0  0
    0.4675   -1.7028    0.2025 C   0  0  2  0  0  0  0  0  0  0  0  0
   -0.6459   -1.5947    1.2691 C   0  0  0  0  0  0  0  0  0  0  0  0
    0.5470   -0.3297   -0.4252 C   0  0  1  0  0  0  0  0  0  0  0  0
    1.5417   -0.1901   -1.4814 C   0  0  1  0  0  0  0  0  0  0  0  0
    2.1483    1.1545   -1.8040 C   0  0  0  0  0  0  0  0  0  0  0  0
    1.2705    2.1694   -2.3866 C   0  0  0  0  0  0  0  0  0  0  0  0
    0.2347    2.6677   -1.9305 O   0  0  0  0  0  0  0  0  0  0  0  0
    1.6673    2.6534   -3.6937 N   0  0  0  0  0  0  0  0  0  0  0  0
    2.9082    2.3167   -4.3808 C   0  0  0  0  0  0  0  0  0  0  0  0
    3.1184    3.2615   -5.5001 C   0  0  0  0  0  0  0  0  0  0  0  0
    1.8747    4.0898   -5.5787 C   0  0  0  0  0  0  0  0  0  0  0  0
    0.9450    3.4682   -4.6466 C   0  0  1  0  0  0  0  0  0  0  0  0
   -0.2814    2.7629   -5.1607 C   0  0  1  0  0  0  0  0  0  0  0  0
   -0.0787    1.3419   -5.5705 C   0  0  1  0  0  0  0  0  0  0  0  0
   -1.4839    0.7836   -5.9890 C   0  0  0  0  0  0  0  0  0  0  0  0
    0.7413    1.0686   -6.7683 C   0  0  0  0  0  0  0  0  0  0  0  0
    1.1591    1.8516   -7.6140 O   0  0  0  0  0  0  0  0  0  0  0  0
    1.0888   -0.3297   -6.9496 N   0  0  0  0  0  0  0  0  0  0  0  0
    1.8696   -0.8227   -8.0494 C   0  0  2  0  0  0  0  0  0  0  0  0
    0.8915   -1.5747   -8.9785 C   0  0  0  0  0  0  0  0  0  0  0  0
    2.8874   -1.8686   -7.6603 C   0  0  1  0  0  0  0  0  0  0  0  0
    3.9283   -1.4370   -6.7449 C   0  0  0  0  0  0  0  0  0  0  0  0
    4.5738   -2.3807   -5.9537 C   0  0  0  0  0  0  0  0  0  0  0  0
    5.5980   -2.0015   -5.0822 C   0  0  0  0  0  0  0  0  0  0  0  0
    6.0151   -0.6927   -4.9631 C   0  0  0  0  0  0  0  0  0  0  0  0
    5.3623    0.2547   -5.7592 C   0  0  0  0  0  0  0  0  0  0  0  0
    4.3547   -0.1283   -6.6154 C   0  0  0  0  0  0  0  0  0  0  0  0
    2.1429   -2.8981   -7.0644 O   0  0  0  0  0  0  0  0  0  0  0  0
   -1.2223    2.6459   -4.0889 O   0  0  0  0  0  0  0  0  0  0  0  0
   -2.3961    3.2979   -4.4221 C   0  0  0  0  0  0  0  0  0  0  0  0
    2.6392   -1.0138   -1.2368 O   0  0  0  0  0  0  0  0  0  0  0  0
    2.9515   -1.8034   -2.3466 C   0  0  0  0  0  0  0  0  0  0  0  0
   -0.6525    0.4269   -0.3269 N   0  0  0  0  0  0  0  0  0  0  0  0
   -0.7038    1.4714    0.7455 C   0  0  0  0  0  0  0  0  0  0  0  0
   -1.7993    0.3716   -1.1426 C   0  0  0  0  0  0  0  0  0  0  0  0
   -1.7157   -0.3132   -2.2276 O   0  0  0  0  0  0  0  0  0  0  0  0
   -3.1047    1.0068   -0.9065 C   0  0  1  0  0  0  0  0  0  0  0  0
   -4.2558    0.0814   -1.2737 C   0  0  0  0  0  0  0  0  0  0  0  0
   -4.2148   -0.3177   -2.7158 C   0  0  0  0  0  0  0  0  0  0  0  0
   -4.4598   -1.0680   -0.3569 C   0  0  0  0  0  0  0  0  0  0  0  0
   -3.4043    1.5322    0.3703 N   0  0  0  0  0  0  0  0  0  0  0  0
   -4.0531    2.7564    0.6788 C   0  0  0  0  0  0  0  0  0  0  0  0
   -4.4206    3.4574   -0.3281 O   0  0  0  0  0  0  0  0  0  0  0  0
   -4.2893    3.1827    2.0495 C   0  0  1  0  0  0  0  0  0  0  0  0
   -3.1886    3.9083    2.7413 C   0  0  0  0  0  0  0  0  0  0  0  0
   -3.6549    4.2566    4.1681 C   0  0  0  0  0  0  0  0  0  0  0  0
   -2.7127    5.1661    2.0788 C   0  0  0  0  0  0  0  0  0  0  0  0
   -5.5657    3.9160    2.1593 N   0  0  0  0  0  0  0  0  0  0  0  0
   -5.7778    5.1971    1.5310 C   0  0  0  0  0  0  0  0  0  0  0  0
   -6.5984    3.2619    2.9385 C   0  0  0  0  0  0  0  0  0  0  0  0
   -7.7371    3.7590    3.0976 O   0  0  0  0  0  0  0  0  0  0  0  0
   -6.3023    2.0685    3.5067 O   0  0  0  0  0  0  0  0  0  0  0  0
   -7.1040    1.2134    4.2905 C   0  0  0  0  0  0  0  0  0  0  0  0
   -6.2603    0.0149    4.6944 C   0  0  0  0  0  0  0  0  0  0  0  0
   -6.1764   -1.0967    3.8819 C   0  0  0  0  0  0  0  0  0  0  0  0
   -5.3416   -2.1321    4.3135 C   0  0  0  0  0  0  0  0  0  0  0  0
   -4.6329   -2.0451    5.4976 C   0  0  0  0  0  0  0  0  0  0  0  0
   -4.7446   -0.9178    6.2852 C   0  0  0  0  0  0  0  0  0  0  0  0
   -5.5658    0.1208    5.8783 C   0  0  0  0  0  0  0  0  0  0  0  0
   -3.7449   -3.1249    5.8554 N   0  0  0  0  0  0  0  0  0  0  0  0
   -2.4158   -2.9690    5.4095 C   0  0  0  0  0  0  0  0  0  0  0  0
   -2.1831   -1.8853    4.7646 O   0  0  0  0  0  0  0  0  0  0  0  0
   -1.2896   -3.8752    5.5875 C   0  0  1  0  0  0  0  0  0  0  0  0
   -1.3711   -5.1354    4.7098 C   0  0  0  0  0  0  0  0  0  0  0  0
   -2.5782   -5.9483    4.9658 C   0  0  0  0  0  0  0  0  0  0  0  0
   -2.6138   -7.2296    4.1422 C   0  0  0  0  0  0  0  0  0  0  0  0
   -1.4921   -8.0922    4.3878 N   0  0  0  0  0  0  0  0  0  0  0  0
   -1.3730   -9.3276    3.6963 C   0  0  0  0  0  0  0  0  0  0  0  0
   -2.2914   -9.6325    2.8628 O   0  0  0  0  0  0  0  0  0  0  0  0
   -0.3237  -10.2434    3.8547 N   0  0  0  0  0  0  0  0  0  0  0  0
   -0.0752   -3.1476    5.1172 N   0  0  0  0  0  0  0  0  0  0  0  0
    1.2032   -3.3656    5.6263 C   0  0  0  0  0  0  0  0  0  0  0  0
    1.3146   -4.2519    6.5514 O   0  0  0  0  0  0  0  0  0  0  0  0
    2.4333   -2.6353    5.1466 C   0  0  1  0  0  0  0  0  0  0  0  0
    3.1284   -3.6461    4.2006 C   0  0  0  0  0  0  0  0  0  0  0  0
    2.2715   -4.0351    3.0490 C   0  0  0  0  0  0  0  0  0  0  0  0
    4.4531   -3.0865    3.7801 C   0  0  0  0  0  0  0  0  0  0  0  0
    2.1206   -1.4537    4.4022 N   0  0  0  0  0  0  0  0  0  0  0  0
    2.9588   -0.3032    4.2743 C   0  0  0  0  0  0  0  0  0  0  0  0
    4.1009   -0.2283    4.8124 O   0  0  0  0  0  0  0  0  0  0  0  0
    2.4515    0.8274    3.4703 C   0  0  0  0  0  0  0  0  0  0  0  0
    3.4507    1.6253    2.7219 C   0  0  0  0  0  0  0  0  0  0  0  0
    4.5349    2.3113    3.4370 C   0  0  0  0  0  0  0  0  0  0  0  0
    4.0390    3.3463    4.3883 C   0  0  0  0  0  0  0  0  0  0  0  0
    3.3248    4.4813    3.6817 C   0  0  0  0  0  0  0  0  0  0  0  0
    4.1925    5.1830    2.7659 N   0  0  0  0  0  0  0  0  0  0  0  0
    4.4644    5.0443    1.4000 C   0  0  0  0  0  0  0  0  0  0  0  0
    3.9668    4.2497    0.5742 O   0  0  0  0  0  0  0  0  0  0  0  0
    5.4875    6.0231    1.0117 C   0  0  0  0  0  0  0  0  0  0  0  0
    5.8301    6.7341    2.0923 C   0  0  0  0  0  0  0  0  0  0  0  0
    5.0538    6.2535    3.2118 C   0  0  0  0  0  0  0  0  0  0  0  0
    5.1600    6.7369    4.3708 O   0  0  0  0  0  0  0  0  0  0  0  0
   -1.0612   -2.9522   -2.2928 H   0  0  0  0  0  0  0  0  0  0  0  0
   -1.9589   -2.6388   -0.7912 H   0  0  0  0  0  0  0  0  0  0  0  0
   -1.3654   -4.2694   -1.1798 H   0  0  0  0  0  0  0  0  0  0  0  0
    0.0791   -3.6984    0.3885 H   0  0  0  0  0  0  0  0  0  0  0  0
    1.0006   -3.4715   -1.0305 H   0  0  0  0  0  0  0  0  0  0  0  0
    1.3815   -1.9071    0.8340 H   0  0  0  0  0  0  0  0  0  0  0  0
   -0.9387   -2.6403    1.5965 H   0  0  0  0  0  0  0  0  0  0  0  0
   -1.5503   -1.1485    0.8267 H   0  0  0  0  0  0  0  0  0  0  0  0
   -0.1919   -1.1266    2.1170 H   0  0  0  0  0  0  0  0  0  0  0  0
    1.1813    0.1897    0.4521 H   0  0  0  0  0  0  0  0  0  0  0  0
    1.1006   -0.5324   -2.5141 H   0  0  0  0  0  0  0  0  0  0  0  0
    3.0451    1.0517   -2.4434 H   0  0  0  0  0  0  0  0  0  0  0  0
    2.6447    1.5749   -0.8450 H   0  0  0  0  0  0  0  0  0  0  0  0
    2.7761    1.3032   -4.7500 H   0  0  0  0  0  0  0  0  0  0  0  0
    3.7828    2.4207   -3.6973 H   0  0  0  0  0  0  0  0  0  0  0  0
    3.4228    2.7821   -6.4526 H   0  0  0  0  0  0  0  0  0  0  0  0
    3.9861    3.9670   -5.2862 H   0  0  0  0  0  0  0  0  0  0  0  0
    2.1360    5.1392   -5.2056 H   0  0  0  0  0  0  0  0  0  0  0  0
    1.5840    4.2057   -6.6334 H   0  0  0  0  0  0  0  0  0  0  0  0
    0.5459    4.3211   -3.9512 H   0  0  0  0  0  0  0  0  0  0  0  0
   -0.7659    3.3420   -5.9397 H   0  0  0  0  0  0  0  0  0  0  0  0
    0.2242    0.6632   -4.7786 H   0  0  0  0  0  0  0  0  0  0  0  0
   -1.2329   -0.2165   -6.4011 H   0  0  0  0  0  0  0  0  0  0  0  0
   -1.9667    1.4424   -6.7110 H   0  0  0  0  0  0  0  0  0  0  0  0
   -2.0448    0.6364   -5.0531 H   0  0  0  0  0  0  0  0  0  0  0  0
    0.7544   -1.0513   -6.2411 H   0  0  0  0  0  0  0  0  0  0  0  0
    2.2422    0.0019   -8.6503 H   0  0  0  0  0  0  0  0  0  0  0  0
    0.0602   -1.9923   -8.4008 H   0  0  0  0  0  0  0  0  0  0  0  0
    0.5466   -0.8922   -9.7959 H   0  0  0  0  0  0  0  0  0  0  0  0
    1.4462   -2.3871   -9.4871 H   0  0  0  0  0  0  0  0  0  0  0  0
    3.3079   -2.3223   -8.5873 H   0  0  0  0  0  0  0  0  0  0  0  0
    4.2525   -3.4159   -6.0388 H   0  0  0  0  0  0  0  0  0  0  0  0
    6.0303   -2.8088   -4.5097 H   0  0  0  0  0  0  0  0  0  0  0  0
    6.8102   -0.4085   -4.2924 H   0  0  0  0  0  0  0  0  0  0  0  0
    5.6110    1.3028   -5.7376 H   0  0  0  0  0  0  0  0  0  0  0  0
    3.8364    0.5894   -7.2419 H   0  0  0  0  0  0  0  0  0  0  0  0
    2.5962   -3.7416   -7.2043 H   0  0  0  0  0  0  0  0  0  0  0  0
   -2.2487    4.3851   -4.6614 H   0  0  0  0  0  0  0  0  0  0  0  0
   -2.9794    3.3564   -3.4483 H   0  0  0  0  0  0  0  0  0  0  0  0
   -3.0594    2.7997   -5.1121 H   0  0  0  0  0  0  0  0  0  0  0  0
    3.7925   -2.4539   -2.0664 H   0  0  0  0  0  0  0  0  0  0  0  0
    2.0889   -2.3613   -2.6493 H   0  0  0  0  0  0  0  0  0  0  0  0
    3.3794   -1.1736   -3.1762 H   0  0  0  0  0  0  0  0  0  0  0  0
    0.3591    1.8397    0.8970 H   0  0  0  0  0  0  0  0  0  0  0  0
   -0.9316    0.9786    1.6766 H   0  0  0  0  0  0  0  0  0  0  0  0
   -1.2551    2.3464    0.4375 H   0  0  0  0  0  0  0  0  0  0  0  0
   -3.2716    1.8775   -1.6371 H   0  0  0  0  0  0  0  0  0  0  0  0
   -5.1790    0.7388   -1.1735 H   0  0  0  0  0  0  0  0  0  0  0  0
   -5.2336   -0.4291   -3.1561 H   0  0  0  0  0  0  0  0  0  0  0  0
   -3.7105    0.4386   -3.3580 H   0  0  0  0  0  0  0  0  0  0  0  0
   -3.7414   -1.3421   -2.8199 H   0  0  0  0  0  0  0  0  0  0  0  0
   -3.9020   -1.0102    0.5948 H   0  0  0  0  0  0  0  0  0  0  0  0
   -4.2529   -2.0574   -0.8122 H   0  0  0  0  0  0  0  0  0  0  0  0
   -5.5419   -1.1557   -0.0262 H   0  0  0  0  0  0  0  0  0  0  0  0
   -3.1453    0.9430    1.2177 H   0  0  0  0  0  0  0  0  0  0  0  0
   -4.5198    2.2455    2.6433 H   0  0  0  0  0  0  0  0  0  0  0  0
   -2.2894    3.2769    2.9215 H   0  0  0  0  0  0  0  0  0  0  0  0
   -4.3179    5.1477    4.1347 H   0  0  0  0  0  0  0  0  0  0  0  0
   -2.7988    4.4736    4.8423 H   0  0  0  0  0  0  0  0  0  0  0  0
   -4.2034    3.4066    4.6090 H   0  0  0  0  0  0  0  0  0  0  0  0
   -3.2764    6.0561    2.4938 H   0  0  0  0  0  0  0  0  0  0  0  0
   -1.6508    5.4227    2.3837 H   0  0  0  0  0  0  0  0  0  0  0  0
   -2.6810    5.1208    0.9906 H   0  0  0  0  0  0  0  0  0  0  0  0
   -6.8317    5.3344    1.1634 H   0  0  0  0  0  0  0  0  0  0  0  0
   -5.6676    6.0228    2.2919 H   0  0  0  0  0  0  0  0  0  0  0  0
   -5.0385    5.4314    0.7613 H   0  0  0  0  0  0  0  0  0  0  0  0
   -7.5042    1.6468    5.1984 H   0  0  0  0  0  0  0  0  0  0  0  0
   -7.9310    0.7952    3.6889 H   0  0  0  0  0  0  0  0  0  0  0  0
   -6.7314   -1.1443    2.9647 H   0  0  0  0  0  0  0  0  0  0  0  0
   -5.2884   -3.0015    3.6548 H   0  0  0  0  0  0  0  0  0  0  0  0
   -4.1948   -0.8347    7.2322 H   0  0  0  0  0  0  0  0  0  0  0  0
   -5.6453    1.0085    6.5013 H   0  0  0  0  0  0  0  0  0  0  0  0
   -4.0108   -3.9507    6.4021 H   0  0  0  0  0  0  0  0  0  0  0  0
   -1.1944   -4.2245    6.6158 H   0  0  0  0  0  0  0  0  0  0  0  0
   -1.3324   -4.8351    3.6314 H   0  0  0  0  0  0  0  0  0  0  0  0
   -0.4771   -5.7447    4.9624 H   0  0  0  0  0  0  0  0  0  0  0  0
   -3.5178   -5.3836    4.6651 H   0  0  0  0  0  0  0  0  0  0  0  0
   -2.6517   -6.2383    6.0282 H   0  0  0  0  0  0  0  0  0  0  0  0
   -2.7751   -6.9995    3.0740 H   0  0  0  0  0  0  0  0  0  0  0  0
   -3.5263   -7.8167    4.4416 H   0  0  0  0  0  0  0  0  0  0  0  0
   -0.7210   -7.8699    5.0657 H   0  0  0  0  0  0  0  0  0  0  0  0
    0.2619  -10.6119    3.0462 H   0  0  0  0  0  0  0  0  0  0  0  0
   -0.1076  -10.5851    4.8215 H   0  0  0  0  0  0  0  0  0  0  0  0
   -0.2851   -2.4610    4.3608 H   0  0  0  0  0  0  0  0  0  0  0  0
    3.1806   -2.4448    5.9152 H   0  0  0  0  0  0  0  0  0  0  0  0
    3.3200   -4.5349    4.8421 H   0  0  0  0  0  0  0  0  0  0  0  0
    1.3278   -3.5192    2.9286 H   0  0  0  0  0  0  0  0  0  0  0  0
    2.8259   -3.8824    2.0761 H   0  0  0  0  0  0  0  0  0  0  0  0
    2.0606   -5.1381    3.0716 H   0  0  0  0  0  0  0  0  0  0  0  0
    4.3561   -2.2627    3.0384 H   0  0  0  0  0  0  0  0  0  0  0  0
    5.0733   -3.8841    3.2607 H   0  0  0  0  0  0  0  0  0  0  0  0
    5.0731   -2.7328    4.6142 H   0  0  0  0  0  0  0  0  0  0  0  0
    1.2172   -1.4148    3.9139 H   0  0  0  0  0  0  0  0  0  0  0  0
    1.6957    0.4201    2.7529 H   0  0  0  0  0  0  0  0  0  0  0  0
    1.8638    1.4673    4.1991 H   0  0  0  0  0  0  0  0  0  0  0  0
    3.9045    0.9675    1.9361 H   0  0  0  0  0  0  0  0  0  0  0  0
    2.9191    2.4150    2.0853 H   0  0  0  0  0  0  0  0  0  0  0  0
    5.2047    1.5591    3.9230 H   0  0  0  0  0  0  0  0  0  0  0  0
    5.1960    2.7935    2.6474 H   0  0  0  0  0  0  0  0  0  0  0  0
    3.3072    2.9244    5.1189 H   0  0  0  0  0  0  0  0  0  0  0  0
    4.8816    3.7420    5.0176 H   0  0  0  0  0  0  0  0  0  0  0  0
    2.9307    5.1386    4.4911 H   0  0  0  0  0  0  0  0  0  0  0  0
    2.4369    4.0336    3.1990 H   0  0  0  0  0  0  0  0  0  0  0  0
    5.8923    6.1388    0.0116 H   0  0  0  0  0  0  0  0  0  0  0  0
    6.5810    7.5173    2.0156 H   0  0  0  0  0  0  0  0  0  0  0  0
  1  2  1  0
  2  3  1  0
  3  4  1  0
  3  5  1  0
  5  6  1  0
  6  7  1  0
  7  8  1  0
  8  9  2  0
  8 10  1  0
 10 11  1  0
 11 12  1  0
 12 13  1  0
 13 14  1  0
 14 15  1  0
 15 16  1  0
 16 17  1  0
 16 18  1  0
 18 19  2  0
 18 20  1  0
 20 21  1  0
 21 22  1  0
 21 23  1  0
 23 24  1  0
 24 25  2  0
 25 26  1  0
 26 27  2  0
 27 28  1  0
 28 29  2  0
 23 30  1  0
 15 31  1  0
 31 32  1  0
  6 33  1  0
 33 34  1  0
  5 35  1  0
 35 36  1  0
 35 37  1  0
 37 38  2  0
 37 39  1  0
 39 40  1  0
 40 41  1  0
 40 42  1  0
 39 43  1  0
 43 44  1  0
 44 45  2  0
 44 46  1  0
 46 47  1  0
 47 48  1  0
 47 49  1  0
 46 50  1  0
 50 51  1  0
 50 52  1  0
 52 53  2  0
 52 54  1  0
 54 55  1  0
 55 56  1  0
 56 57  1  0
 57 58  2  0
 58 59  1  0
 59 60  2  0
 60 61  1  0
 59 62  1  0
 62 63  1  0
 63 64  2  0
 63 65  1  0
 65 66  1  0
 66 67  1  0
 67 68  1  0
 68 69  1  0
 69 70  1  0
 70 71  2  0
 70 72  1  0
 65 73  1  0
 73 74  1  0
 74 75  2  0
 74 76  1  0
 76 77  1  0
 77 78  1  0
 77 79  1  0
 76 80  1  0
 80 81  1  0
 81 82  2  0
 81 83  1  0
 83 84  1  0
 84 85  1  0
 85 86  1  0
 86 87  1  0
 87 88  1  0
 88 89  1  0
 89 90  2  0
 89 91  1  0
 91 92  2  0
 92 93  1  0
 93 94  2  0
 14 10  1  0
 29 24  1  0
 61 56  2  0
 93 88  1  0
  1 95  1  0
  1 96  1  0
  1 97  1  0
  2 98  1  0
  2 99  1  0
  3100  1  1
  4101  1  0
  4102  1  0
  4103  1  0
  5104  1  1
  6105  1  6
  7106  1  0
  7107  1  0
 11108  1  0
 11109  1  0
 12110  1  0
 12111  1  0
 13112  1  0
 13113  1  0
 14114  1  1
 15115  1  6
 16116  1  1
 17117  1  0
 17118  1  0
 17119  1  0
 20120  1  0
 21121  1  6
 22122  1  0
 22123  1  0
 22124  1  0
 23125  1  6
 25126  1  0
 26127  1  0
 27128  1  0
 28129  1  0
 29130  1  0
 30131  1  0
 32132  1  0
 32133  1  0
 32134  1  0
 34135  1  0
 34136  1  0
 34137  1  0
 36138  1  0
 36139  1  0
 36140  1  0
 39141  1  6
 40142  1  0
 41143  1  0
 41144  1  0
 41145  1  0
 42146  1  0
 42147  1  0
 42148  1  0
 43149  1  0
 46150  1  1
 47151  1  0
 48152  1  0
 48153  1  0
 48154  1  0
 49155  1  0
 49156  1  0
 49157  1  0
 51158  1  0
 51159  1  0
 51160  1  0
 55161  1  0
 55162  1  0
 57163  1  0
 58164  1  0
 60165  1  0
 61166  1  0
 62167  1  0
 65168  1  1
 66169  1  0
 66170  1  0
 67171  1  0
 67172  1  0
 68173  1  0
 68174  1  0
 69175  1  0
 72176  1  0
 72177  1  0
 73178  1  0
 76179  1  1
 77180  1  0
 78181  1  0
 78182  1  0
 78183  1  0
 79184  1  0
 79185  1  0
 79186  1  0
 80187  1  0
 83188  1  0
 83189  1  0
 84190  1  0
 84191  1  0
 85192  1  0
 85193  1  0
 86194  1  0
 86195  1  0
 87196  1  0
 87197  1  0
 91198  1  0
 92199  1  0
M  END
$$$$

     RDKit          3D

199202  0  0  0  0  0  0  0  0999 V2000
   -6.7175   -4.9902   -2.0832 C   0  0  0  0  0  0  0  0  0  0  0  0
   -5.2907   -4.6730   -1.7161 C   0  0  0  0  0  0  0  0  0  0  0  0
   -4.4682   -4.3897   -2.9968 C   0  0  2  0  0  0  0  0  0  0  0  0
   -4.5637   -5.6758   -3.7876 C   0  0  0  0  0  0  0  0  0  0  0  0
   -3.0929   -4.0652   -2.5011 C   0  0  1  0  0  0  0  0  0  0  0  0
   -2.0908   -3.7003   -3.5854 C   0  0  1  0  0  0  0  0  0  0  0  0
   -0.6975   -3.7644   -3.0698 C   0  0  0  0  0  0  0  0  0  0  0  0
    0.3846   -3.5244   -4.0454 C   0  0  0  0  0  0  0  0  0  0  0  0
    0.1755   -3.5197   -5.3140 O   0  0  0  0  0  0  0  0  0  0  0  0
    1.7395   -3.2845   -3.6973 N   0  0  0  0  0  0  0  0  0  0  0  0
    2.7846   -3.1884   -4.7288 C   0  0  0  0  0  0  0  0  0  0  0  0
    4.0159   -3.7740   -4.0279 C   0  0  0  0  0  0  0  0  0  0  0  0
    3.5612   -4.0966   -2.6374 C   0  0  0  0  0  0  0  0  0  0  0  0
    2.4246   -3.0777   -2.4613 C   0  0  1  0  0  0  0  0  0  0  0  0
    3.0102   -1.7260   -2.2203 C   0  0  1  0  0  0  0  0  0  0  0  0
    2.0507   -0.5783   -2.1642 C   0  0  1  0  0  0  0  0  0  0  0  0
    2.9378    0.6720   -1.8796 C   0  0  0  0  0  0  0  0  0  0  0  0
    1.2810   -0.3166   -3.3799 C   0  0  0  0  0  0  0  0  0  0  0  0
    0.0087   -0.4823   -3.3625 O   0  0  0  0  0  0  0  0  0  0  0  0
    1.8037    0.1213   -4.6249 N   0  0  0  0  0  0  0  0  0  0  0  0
    0.9644    0.3460   -5.7571 C   0  0  2  0  0  0  0  0  0  0  0  0
    1.3677   -0.4232   -6.9752 C   0  0  0  0  0  0  0  0  0  0  0  0
    0.8775    1.8115   -6.1803 C   0  0  1  0  0  0  0  0  0  0  0  0
    0.1170    2.6039   -5.1836 C   0  0  0  0  0  0  0  0  0  0  0  0
    0.8292    3.0910   -4.0815 C   0  0  0  0  0  0  0  0  0  0  0  0
    0.1639    3.8392   -3.1184 C   0  0  0  0  0  0  0  0  0  0  0  0
   -1.1827    4.0614   -3.3064 C   0  0  0  0  0  0  0  0  0  0  0  0
   -1.8987    3.5944   -4.3770 C   0  0  0  0  0  0  0  0  0  0  0  0
   -1.2411    2.8532   -5.3326 C   0  0  0  0  0  0  0  0  0  0  0  0
    2.0928    2.3457   -6.5341 O   0  0  0  0  0  0  0  0  0  0  0  0
    3.7053   -1.7351   -0.9901 O   0  0  0  0  0  0  0  0  0  0  0  0
    5.0347   -1.4639   -1.0710 C   0  0  0  0  0  0  0  0  0  0  0  0
   -2.2719   -4.5549   -4.6364 O   0  0  0  0  0  0  0  0  0  0  0  0
   -2.7687   -4.0240   -5.7977 C   0  0  0  0  0  0  0  0  0  0  0  0
   -3.1501   -3.3085   -1.3120 N   0  0  0  0  0  0  0  0  0  0  0  0
   -2.7043   -3.9580   -0.0665 C   0  0  0  0  0  0  0  0  0  0  0  0
   -3.6405   -1.9802   -1.3525 C   0  0  0  0  0  0  0  0  0  0  0  0
   -3.9539   -1.5854   -2.5497 O   0  0  0  0  0  0  0  0  0  0  0  0
   -3.8456   -1.0302   -0.2944 C   0  0  1  0  0  0  0  0  0  0  0  0
   -2.6466   -0.4674    0.4224 C   0  0  0  0  0  0  0  0  0  0  0  0
   -1.6856    0.2329   -0.4894 C   0  0  0  0  0  0  0  0  0  0  0  0
   -2.0197   -1.2873    1.4806 C   0  0  0  0  0  0  0  0  0  0  0  0
   -4.4699    0.1880   -0.8854 N   0  0  0  0  0  0  0  0  0  0  0  0
   -5.4331    0.8207   -0.1133 C   0  0  0  0  0  0  0  0  0  0  0  0
   -5.7470    0.3489    1.0164 O   0  0  0  0  0  0  0  0  0  0  0  0
   -6.1742    2.0766   -0.4872 C   0  0  1  0  0  0  0  0  0  0  0  0
   -7.2037    1.8712   -1.5070 C   0  0  0  0  0  0  0  0  0  0  0  0
   -6.6047    1.3471   -2.7901 C   0  0  0  0  0  0  0  0  0  0  0  0
   -7.8276    3.2222   -1.8754 C   0  0  0  0  0  0  0  0  0  0  0  0
   -6.7077    2.5772    0.7858 N   0  0  0  0  0  0  0  0  0  0  0  0
   -7.7590    1.9415    1.5107 C   0  0  0  0  0  0  0  0  0  0  0  0
   -6.0667    3.7851    1.2499 C   0  0  0  0  0  0  0  0  0  0  0  0
   -5.1932    4.2621    0.4909 O   0  0  0  0  0  0  0  0  0  0  0  0
   -6.3783    4.3694    2.4384 O   0  0  0  0  0  0  0  0  0  0  0  0
   -5.7766    5.5349    2.9869 C   0  0  0  0  0  0  0  0  0  0  0  0
   -4.2970    5.3028    3.1372 C   0  0  0  0  0  0  0  0  0  0  0  0
   -3.7823    4.5802    4.1932 C   0  0  0  0  0  0  0  0  0  0  0  0
   -2.4254    4.3652    4.3196 C   0  0  0  0  0  0  0  0  0  0  0  0
   -1.5075    4.8613    3.3980 C   0  0  0  0  0  0  0  0  0  0  0  0
   -2.0380    5.5808    2.3524 C   0  0  0  0  0  0  0  0  0  0  0  0
   -3.4102    5.8036    2.2159 C   0  0  0  0  0  0  0  0  0  0  0  0
   -0.1323    4.5644    3.5528 N   0  0  0  0  0  0  0  0  0  0  0  0
    0.9272    5.1200    2.8353 C   0  0  0  0  0  0  0  0  0  0  0  0
    0.7611    5.9949    1.9531 O   0  0  0  0  0  0  0  0  0  0  0  0
    2.3767    4.7219    3.0489 C   0  0  1  0  0  0  0  0  0  0  0  0
    3.1367    5.9406    3.3995 C   0  0  0  0  0  0  0  0  0  0  0  0
    4.6042    5.8176    3.6174 C   0  0  0  0  0  0  0  0  0  0  0  0
    5.4065    5.3301    2.4462 C   0  0  0  0  0  0  0  0  0  0  0  0
    5.1235    3.9799    2.0987 N   0  0  0  0  0  0  0  0  0  0  0  0
    5.8059    3.4646    0.9331 C   0  0  0  0  0  0  0  0  0  0  0  0
    6.5817    4.2898    0.3553 O   0  0  0  0  0  0  0  0  0  0  0  0
    5.6150    2.1351    0.4759 N   0  0  0  0  0  0  0  0  0  0  0  0
    2.4838    3.6359    3.9500 N   0  0  0  0  0  0  0  0  0  0  0  0
    2.6335    3.6992    5.3597 C   0  0  0  0  0  0  0  0  0  0  0  0
    2.6738    4.7914    5.9944 O   0  0  0  0  0  0  0  0  0  0  0  0
    2.7578    2.4746    6.2156 C   0  0  1  0  0  0  0  0  0  0  0  0
    1.8153    2.5370    7.3708 C   0  0  0  0  0  0  0  0  0  0  0  0
    1.9214    1.3115    8.2557 C   0  0  0  0  0  0  0  0  0  0  0  0
    0.3665    2.6261    6.9266 C   0  0  0  0  0  0  0  0  0  0  0  0
    2.6407    1.2440    5.4879 N   0  0  0  0  0  0  0  0  0  0  0  0
    3.7164    0.3977    5.1204 C   0  0  0  0  0  0  0  0  0  0  0  0
    4.9256    0.6596    5.3915 O   0  0  0  0  0  0  0  0  0  0  0  0
    3.3770   -0.8590    4.3809 C   0  0  0  0  0  0  0  0  0  0  0  0
    4.6304   -1.5488    3.9659 C   0  0  0  0  0  0  0  0  0  0  0  0
    4.3754   -2.8696    3.2552 C   0  0  0  0  0  0  0  0  0  0  0  0
    3.6507   -3.8386    4.1492 C   0  0  0  0  0  0  0  0  0  0  0  0
    3.4248   -5.1224    3.4535 C   0  0  0  0  0  0  0  0  0  0  0  0
    4.6193   -5.7998    3.0199 N   0  0  0  0  0  0  0  0  0  0  0  0
    5.4299   -6.7219    3.7036 C   0  0  0  0  0  0  0  0  0  0  0  0
    5.2846   -7.1470    4.8582 O   0  0  0  0  0  0  0  0  0  0  0  0
    6.5324   -7.1329    2.8115 C   0  0  0  0  0  0  0  0  0  0  0  0
    6.4064   -6.5002    1.6479 C   0  0  0  0  0  0  0  0  0  0  0  0
    5.2191   -5.6459    1.7206 C   0  0  0  0  0  0  0  0  0  0  0  0
    4.8185   -4.9083    0.7747 O   0  0  0  0  0  0  0  0  0  0  0  0
   -6.9016   -4.9567   -3.1652 H   0  0  0  0  0  0  0  0  0  0  0  0
   -7.0500   -5.9802   -1.6979 H   0  0  0  0  0  0  0  0  0  0  0  0
   -7.3992   -4.2057   -1.6431 H   0  0  0  0  0  0  0  0  0  0  0  0
   -5.2687   -3.7963   -1.0441 H   0  0  0  0  0  0  0  0  0  0  0  0
   -4.8657   -5.5909   -1.2716 H   0  0  0  0  0  0  0  0  0  0  0  0
   -4.9159   -3.5911   -3.5825 H   0  0  0  0  0  0  0  0  0  0  0  0
   -5.0292   -5.5295   -4.7876 H   0  0  0  0  0  0  0  0  0  0  0  0
   -3.6073   -6.2416   -3.8175 H   0  0  0  0  0  0  0  0  0  0  0  0
   -5.2667   -6.3538   -3.2587 H   0  0  0  0  0  0  0  0  0  0  0  0
   -2.6912   -5.1117   -2.1765 H   0  0  0  0  0  0  0  0  0  0  0  0
   -2.3176   -2.6365   -3.8690 H   0  0  0  0  0  0  0  0  0  0  0  0
   -0.4763   -4.7908   -2.6348 H   0  0  0  0  0  0  0  0  0  0  0  0
   -0.5649   -3.0950   -2.1791 H   0  0  0  0  0  0  0  0  0  0  0  0
    2.5715   -3.8770   -5.5739 H   0  0  0  0  0  0  0  0  0  0  0  0
    2.9604   -2.2156   -5.1331 H   0  0  0  0  0  0  0  0  0  0  0  0
    4.3576   -4.7249   -4.5212 H   0  0  0  0  0  0  0  0  0  0  0  0
    4.8677   -3.0668   -4.0892 H   0  0  0  0  0  0  0  0  0  0  0  0
    3.1359   -5.1244   -2.6434 H   0  0  0  0  0  0  0  0  0  0  0  0
    4.3096   -4.0591   -1.8592 H   0  0  0  0  0  0  0  0  0  0  0  0
    1.7969   -3.4128   -1.5894 H   0  0  0  0  0  0  0  0  0  0  0  0
    3.7620   -1.5078   -2.9940 H   0  0  0  0  0  0  0  0  0  0  0  0
    1.3768   -0.6042   -1.3047 H   0  0  0  0  0  0  0  0  0  0  0  0
    2.2923    1.5866   -2.0273 H   0  0  0  0  0  0  0  0  0  0  0  0
    3.2775    0.6979   -0.8475 H   0  0  0  0  0  0  0  0  0  0  0  0
    3.7476    0.7640   -2.5970 H   0  0  0  0  0  0  0  0  0  0  0  0
    2.8399    0.2809   -4.6882 H   0  0  0  0  0  0  0  0  0  0  0  0
   -0.0972    0.0732   -5.5238 H   0  0  0  0  0  0  0  0  0  0  0  0
    2.3566   -0.0870   -7.3500 H   0  0  0  0  0  0  0  0  0  0  0  0
    0.5976   -0.2452   -7.7530 H   0  0  0  0  0  0  0  0  0  0  0  0
    1.3541   -1.5057   -6.7625 H   0  0  0  0  0  0  0  0  0  0  0  0
    0.2419    1.7893   -7.1148 H   0  0  0  0  0  0  0  0  0  0  0  0
    1.9001    2.8754   -3.9952 H   0  0  0  0  0  0  0  0  0  0  0  0
    0.7297    4.2078   -2.2774 H   0  0  0  0  0  0  0  0  0  0  0  0
   -1.7095    4.6365   -2.5676 H   0  0  0  0  0  0  0  0  0  0  0  0
   -2.9505    3.7694   -4.5245 H   0  0  0  0  0  0  0  0  0  0  0  0
   -1.7540    2.4496   -6.2150 H   0  0  0  0  0  0  0  0  0  0  0  0
    2.3155    1.9543   -7.4312 H   0  0  0  0  0  0  0  0  0  0  0  0
    5.6528   -2.1283   -1.6906 H   0  0  0  0  0  0  0  0  0  0  0  0
    5.3273   -0.4251   -1.2959 H   0  0  0  0  0  0  0  0  0  0  0  0
    5.4382   -1.6253   -0.0209 H   0  0  0  0  0  0  0  0  0  0  0  0
   -2.1818   -3.2256   -6.2815 H   0  0  0  0  0  0  0  0  0  0  0  0
   -2.7449   -4.8725   -6.5479 H   0  0  0  0  0  0  0  0  0  0  0  0
   -3.8485   -3.7408   -5.7667 H   0  0  0  0  0  0  0  0  0  0  0  0
   -1.6514   -3.8028    0.1360 H   0  0  0  0  0  0  0  0  0  0  0  0
   -3.4170   -3.7718    0.7555 H   0  0  0  0  0  0  0  0  0  0  0  0
   -2.8002   -5.0891   -0.2223 H   0  0  0  0  0  0  0  0  0  0  0  0
   -4.5236   -1.3575    0.5315 H   0  0  0  0  0  0  0  0  0  0  0  0
   -3.1161    0.4216    1.0170 H   0  0  0  0  0  0  0  0  0  0  0  0
   -0.9031   -0.4744   -0.8305 H   0  0  0  0  0  0  0  0  0  0  0  0
   -2.2139    0.7304   -1.3103 H   0  0  0  0  0  0  0  0  0  0  0  0
   -1.1499    1.0061    0.0946 H   0  0  0  0  0  0  0  0  0  0  0  0
   -2.7493   -1.9286    1.9844 H   0  0  0  0  0  0  0  0  0  0  0  0
   -1.1065   -1.7819    1.1271 H   0  0  0  0  0  0  0  0  0  0  0  0
   -1.6198   -0.6063    2.3172 H   0  0  0  0  0  0  0  0  0  0  0  0
   -4.1981    0.5423   -1.8114 H   0  0  0  0  0  0  0  0  0  0  0  0
   -5.4187    2.8209   -0.8167 H   0  0  0  0  0  0  0  0  0  0  0  0
   -8.0002    1.1418   -1.2310 H   0  0  0  0  0  0  0  0  0  0  0  0
   -6.3624    0.2649   -2.7365 H   0  0  0  0  0  0  0  0  0  0  0  0
   -7.3633    1.4839   -3.6263 H   0  0  0  0  0  0  0  0  0  0  0  0
   -5.6901    1.8907   -3.0911 H   0  0  0  0  0  0  0  0  0  0  0  0
   -8.3208    3.6651   -0.9968 H   0  0  0  0  0  0  0  0  0  0  0  0
   -6.9869    3.8864   -2.1638 H   0  0  0  0  0  0  0  0  0  0  0  0
   -8.4907    3.1261   -2.7504 H   0  0  0  0  0  0  0  0  0  0  0  0
   -8.4654    2.7171    1.9030 H   0  0  0  0  0  0  0  0  0  0  0  0
   -7.2980    1.4265    2.3895 H   0  0  0  0  0  0  0  0  0  0  0  0
   -8.3674    1.2528    0.9133 H   0  0  0  0  0  0  0  0  0  0  0  0
   -6.1832    5.7076    3.9960 H   0  0  0  0  0  0  0  0  0  0  0  0
   -5.9137    6.4337    2.3775 H   0  0  0  0  0  0  0  0  0  0  0  0
   -4.4513    4.1716    4.9372 H   0  0  0  0  0  0  0  0  0  0  0  0
   -2.0922    3.7849    5.1773 H   0  0  0  0  0  0  0  0  0  0  0  0
   -1.4243    6.0078    1.5831 H   0  0  0  0  0  0  0  0  0  0  0  0
   -3.7542    6.3901    1.3644 H   0  0  0  0  0  0  0  0  0  0  0  0
    0.1213    3.8389    4.2888 H   0  0  0  0  0  0  0  0  0  0  0  0
    2.7367    4.4308    2.0465 H   0  0  0  0  0  0  0  0  0  0  0  0
    3.0363    6.6202    2.4811 H   0  0  0  0  0  0  0  0  0  0  0  0
    2.6434    6.5698    4.1855 H   0  0  0  0  0  0  0  0  0  0  0  0
    4.7746    5.1161    4.4971 H   0  0  0  0  0  0  0  0  0  0  0  0
    5.0275    6.8100    3.9345 H   0  0  0  0  0  0  0  0  0  0  0  0
    6.5023    5.5024    2.6299 H   0  0  0  0  0  0  0  0  0  0  0  0
    5.1550    6.0354    1.5920 H   0  0  0  0  0  0  0  0  0  0  0  0
    4.5242    3.3001    2.5830 H   0  0  0  0  0  0  0  0  0  0  0  0
    5.7801    1.2845    1.0744 H   0  0  0  0  0  0  0  0  0  0  0  0
    5.2971    2.0130   -0.5070 H   0  0  0  0  0  0  0  0  0  0  0  0
    2.4450    2.6489    3.5465 H   0  0  0  0  0  0  0  0  0  0  0  0
    3.8340    2.5012    6.5694 H   0  0  0  0  0  0  0  0  0  0  0  0
    2.0138    3.4661    7.9483 H   0  0  0  0  0  0  0  0  0  0  0  0
    0.9305    0.8929    8.4668 H   0  0  0  0  0  0  0  0  0  0  0  0
    2.6347    0.5581    7.8545 H   0  0  0  0  0  0  0  0  0  0  0  0
    2.3299    1.6535    9.2357 H   0  0  0  0  0  0  0  0  0  0  0  0
    0.0684    3.6484    6.6697 H   0  0  0  0  0  0  0  0  0  0  0  0
   -0.2814    2.3598    7.8172 H   0  0  0  0  0  0  0  0  0  0  0  0
    0.1177    1.8515    6.1793 H   0  0  0  0  0  0  0  0  0  0  0  0
    1.6556    0.9549    5.2110 H   0  0  0  0  0  0  0  0  0  0  0  0
    2.7408   -1.4683    5.0582 H   0  0  0  0  0  0  0  0  0  0  0  0
    2.7521   -0.6195    3.4909 H   0  0  0  0  0  0  0  0  0  0  0  0
    5.3918   -1.6157    4.7593 H   0  0  0  0  0  0  0  0  0  0  0  0
    5.0922   -0.8973    3.1593 H   0  0  0  0  0  0  0  0  0  0  0  0
    3.7659   -2.6212    2.3570 H   0  0  0  0  0  0  0  0  0  0  0  0
    5.3249   -3.2759    2.9165 H   0  0  0  0  0  0  0  0  0  0  0  0
    4.1267   -3.9321    5.1466 H   0  0  0  0  0  0  0  0  0  0  0  0
    2.6369   -3.3897    4.3491 H   0  0  0  0  0  0  0  0  0  0  0  0
    2.7604   -4.9762    2.5762 H   0  0  0  0  0  0  0  0  0  0  0  0
    2.8634   -5.8652    4.0977 H   0  0  0  0  0  0  0  0  0  0  0  0
    7.3320   -7.8342    3.0430 H   0  0  0  0  0  0  0  0  0  0  0  0
    7.0600   -6.5881    0.7730 H   0  0  0  0  0  0  0  0  0  0  0  0
  1  2  1  0
  2  3  1  0
  3  4  1  0
  3  5  1  0
  5  6  1  0
  6  7  1  0
  7  8  1  0
  8  9  2  0
  8 10  1  0
 10 11  1  0
 11 12  1  0
 12 13  1  0
 13 14  1  0
 14 15  1  0
 15 16  1  0
 16 17  1  0
 16 18  1  0
 18 19  2  0
 18 20  1  0
 20 21  1  0
 21 22  1  0
 21 23  1  0
 23 24  1  0
 24 25  2  0
 25 26  1  0
 26 27  2  0
 27 28  1  0
 28 29  2  0
 23 30  1  0
 15 31  1  0
 31 32  1  0
  6 33  1  0
 33 34  1  0
  5 35  1  0
 35 36  1  0
 35 37  1  0
 37 38  2  0
 37 39  1  0
 39 40  1  0
 40 41  1  0
 40 42  1  0
 39 43  1  0
 43 44  1  0
 44 45  2  0
 44 46  1  0
 46 47  1  0
 47 48  1  0
 47 49  1  0
 46 50  1  0
 50 51  1  0
 50 52  1  0
 52 53  2  0
 52 54  1  0
 54 55  1  0
 55 56  1  0
 56 57  1  0
 57 58  2  0
 58 59  1  0
 59 60  2  0
 60 61  1  0
 59 62  1  0
 62 63  1  0
 63 64  2  0
 63 65  1  0
 65 66  1  0
 66 67  1  0
 67 68  1  0
 68 69  1  0
 69 70  1  0
 70 71  2  0
 70 72  1  0
 65 73  1  0
 73 74  1  0
 74 75  2  0
 74 76  1  0
 76 77  1  0
 77 78  1  0
 77 79  1  0
 76 80  1  0
 80 81  1  0
 81 82  2  0
 81 83  1  0
 83 84  1  0
 84 85  1  0
 85 86  1  0
 86 87  1  0
 87 88  1  0
 88 89  1  0
 89 90  2  0
 89 91  1  0
 91 92  2  0
 92 93  1  0
 93 94  2  0
 14 10  1  0
 29 24  1  0
 61 56  2  0
 93 88  1  0
  1 95  1  0
  1 96  1  0
  1 97  1  0
  2 98  1  0
  2 99  1  0
  3100  1  6
  4101  1  0
  4102  1  0
  4103  1  0
  5104  1  1
  6105  1  6
  7106  1  0
  7107  1  0
 11108  1  0
 11109  1  0
 12110  1  0
 12111  1  0
 13112  1  0
 13113  1  0
 14114  1  1
 15115  1  6
 16116  1  1
 17117  1  0
 17118  1  0
 17119  1  0
 20120  1  0
 21121  1  1
 22122  1  0
 22123  1  0
 22124  1  0
 23125  1  6
 25126  1  0
 26127  1  0
 27128  1  0
 28129  1  0
 29130  1  0
 30131  1  0
 32132  1  0
 32133  1  0
 32134  1  0
 34135  1  0
 34136  1  0
 34137  1  0
 36138  1  0
 36139  1  0
 36140  1  0
 39141  1  1
 40142  1  0
 41143  1  0
 41144  1  0
 41145  1  0
 42146  1  0
 42147  1  0
 42148  1  0
 43149  1  0
 46150  1  6
 47151  1  0
 48152  1  0
 48153  1  0
 48154  1  0
 49155  1  0
 49156  1  0
 49157  1  0
 51158  1  0
 51159  1  0
 51160  1  0
 55161  1  0
 55162  1  0
 57163  1  0
 58164  1  0
 60165  1  0
 61166  1  0
 62167  1  0
 65168  1  6
 66169  1  0
 66170  1  0
 67171  1  0
 67172  1  0
 68173  1  0
 68174  1  0
 69175  1  0
 72176  1  0
 72177  1  0
 73178  1  0
 76179  1  1
 77180  1  0
 78181  1  0
 78182  1  0
 78183  1  0
 79184  1  0
 79185  1  0
 79186  1  0
 80187  1  0
 83188  1  0
 83189  1  0
 84190  1  0
 84191  1  0
 85192  1  0
 85193  1  0
 86194  1  0
 86195  1  0
 87196  1  0
 87197  1  0
 91198  1  0
 92199  1  0
M  END
$$$$

     RDKit          3D

199202  0  0  0  0  0  0  0  0999 V2000
   -3.6907   -2.9691    3.6685 C   0  0  0  0  0  0  0  0  0  0  0  0
   -3.5495   -2.3223    5.0043 C   0  0  0  0  0  0  0  0  0  0  0  0
   -2.1000   -2.1040    5.3692 C   0  0  2  0  0  0  0  0  0  0  0  0
   -2.1345   -1.4605    6.7557 C   0  0  0  0  0  0  0  0  0  0  0  0
   -1.2457   -1.3925    4.3885 C   0  0  1  0  0  0  0  0  0  0  0  0
   -1.5118    0.0187    4.0253 C   0  0  1  0  0  0  0  0  0  0  0  0
   -2.7417    0.3112    3.2115 C   0  0  0  0  0  0  0  0  0  0  0  0
   -2.9452    1.7951    3.0336 C   0  0  0  0  0  0  0  0  0  0  0  0
   -2.4578    2.6401    3.8200 O   0  0  0  0  0  0  0  0  0  0  0  0
   -3.7120    2.2872    1.9571 N   0  0  0  0  0  0  0  0  0  0  0  0
   -4.4150    1.5254    0.8970 C   0  0  0  0  0  0  0  0  0  0  0  0
   -5.8062    2.1405    1.0541 C   0  0  0  0  0  0  0  0  0  0  0  0
   -5.6033    3.4985    1.7786 C   0  0  0  0  0  0  0  0  0  0  0  0
   -4.1128    3.6632    1.6102 C   0  0  1  0  0  0  0  0  0  0  0  0
   -3.4956    4.7636    2.3363 C   0  0  1  0  0  0  0  0  0  0  0  0
   -2.1616    5.2899    1.8248 C   0  0  1  0  0  0  0  0  0  0  0  0
   -1.0599    4.3145    1.6862 C   0  0  0  0  0  0  0  0  0  0  0  0
   -2.2110    6.3297    0.8001 C   0  0  0  0  0  0  0  0  0  0  0  0
   -1.7714    7.5210    1.0838 O   0  0  0  0  0  0  0  0  0  0  0  0
   -2.6906    6.2110   -0.5219 N   0  0  0  0  0  0  0  0  0  0  0  0
   -2.6634    7.3578   -1.4081 C   0  0  2  0  0  0  0  0  0  0  0  0
   -4.0881    7.7121   -1.8496 C   0  0  0  0  0  0  0  0  0  0  0  0
   -1.8515    7.0284   -2.6358 C   0  0  1  0  0  0  0  0  0  0  0  0
   -0.4144    6.8771   -2.4148 C   0  0  0  0  0  0  0  0  0  0  0  0
    0.4408    7.9306   -2.7041 C   0  0  0  0  0  0  0  0  0  0  0  0
    1.8034    7.8674   -2.5421 C   0  0  0  0  0  0  0  0  0  0  0  0
    2.3496    6.6745   -2.0593 C   0  0  0  0  0  0  0  0  0  0  0  0
    1.5021    5.6590   -1.7818 C   0  0  0  0  0  0  0  0  0  0  0  0
    0.1403    5.6833   -1.9288 C   0  0  0  0  0  0  0  0  0  0  0  0
   -2.4096    5.9250   -3.3091 O   0  0  0  0  0  0  0  0  0  0  0  0
   -4.3173    5.9253    1.9214 O   0  0  0  0  0  0  0  0  0  0  0  0
   -4.8751    6.4477    3.0853 C   0  0  0  0  0  0  0  0  0  0  0  0
   -1.1373    1.0226    4.8741 O   0  0  0  0  0  0  0  0  0  0  0  0
    0.0017    1.7198    4.3847 C   0  0  0  0  0  0  0  0  0  0  0  0
    0.1371   -1.7060    4.6198 N   0  0  0  0  0  0  0  0  0  0  0  0
    0.6937   -1.1568    5.8901 C   0  0  0  0  0  0  0  0  0  0  0  0
    1.0209   -2.5011    3.9026 C   0  0  0  0  0  0  0  0  0  0  0  0
    2.2792   -2.3971    4.3244 O   0  0  0  0  0  0  0  0  0  0  0  0
    0.9276   -3.4400    2.7958 C   0  0  1  0  0  0  0  0  0  0  0  0
    0.0959   -3.1787    1.6282 C   0  0  0  0  0  0  0  0  0  0  0  0
    0.4699   -1.8851    0.9392 C   0  0  0  0  0  0  0  0  0  0  0  0
    0.3564   -4.2546    0.5293 C   0  0  0  0  0  0  0  0  0  0  0  0
    2.3010   -3.7861    2.3800 N   0  0  0  0  0  0  0  0  0  0  0  0
    3.0412   -4.8223    2.9951 C   0  0  0  0  0  0  0  0  0  0  0  0
    2.5490   -5.4962    3.9539 O   0  0  0  0  0  0  0  0  0  0  0  0
    4.4262   -5.2004    2.5802 C   0  0  1  0  0  0  0  0  0  0  0  0
    4.6016   -6.7163    2.5682 C   0  0  0  0  0  0  0  0  0  0  0  0
    4.3348   -7.2543    3.9409 C   0  0  0  0  0  0  0  0  0  0  0  0
    6.0615   -7.0153    2.2435 C   0  0  0  0  0  0  0  0  0  0  0  0
    4.7606   -4.6551    1.2789 N   0  0  0  0  0  0  0  0  0  0  0  0
    3.8571   -5.0703    0.1962 C   0  0  0  0  0  0  0  0  0  0  0  0
    5.8903   -3.7985    1.0344 C   0  0  0  0  0  0  0  0  0  0  0  0
    6.5957   -3.5750    2.0867 O   0  0  0  0  0  0  0  0  0  0  0  0
    6.1808   -3.3100   -0.0778 O   0  0  0  0  0  0  0  0  0  0  0  0
    6.6677   -2.6988   -1.1421 C   0  0  0  0  0  0  0  0  0  0  0  0
    5.6517   -2.9063   -2.2781 C   0  0  0  0  0  0  0  0  0  0  0  0
    5.5468   -4.1304   -2.8991 C   0  0  0  0  0  0  0  0  0  0  0  0
    4.5085   -4.2721   -3.8365 C   0  0  0  0  0  0  0  0  0  0  0  0
    3.6411   -3.2248   -4.1128 C   0  0  0  0  0  0  0  0  0  0  0  0
    3.8124   -2.0214   -3.4575 C   0  0  0  0  0  0  0  0  0  0  0  0
    4.8140   -1.8407   -2.5311 C   0  0  0  0  0  0  0  0  0  0  0  0
    2.4934   -3.4143   -4.9842 N   0  0  0  0  0  0  0  0  0  0  0  0
    1.3006   -2.8414   -4.5151 C   0  0  0  0  0  0  0  0  0  0  0  0
    1.3173   -2.1917   -3.3913 O   0  0  0  0  0  0  0  0  0  0  0  0
   -0.0369   -2.8746   -5.1469 C   0  0  1  0  0  0  0  0  0  0  0  0
   -0.7283   -4.1905   -4.9098 C   0  0  0  0  0  0  0  0  0  0  0  0
   -2.1073   -4.3051   -5.4834 C   0  0  0  0  0  0  0  0  0  0  0  0
   -2.5516   -5.7360   -5.1148 C   0  0  0  0  0  0  0  0  0  0  0  0
   -3.8773   -6.0411   -5.5531 N   0  0  0  0  0  0  0  0  0  0  0  0
   -4.3555   -7.3663   -5.2358 C   0  0  0  0  0  0  0  0  0  0  0  0
   -3.6119   -8.1838   -4.6071 O   0  0  0  0  0  0  0  0  0  0  0  0
   -5.6803   -7.7822   -5.6241 N   0  0  0  0  0  0  0  0  0  0  0  0
   -0.7627   -1.7883   -4.4407 N   0  0  0  0  0  0  0  0  0  0  0  0
   -1.3916   -0.8416   -5.2698 C   0  0  0  0  0  0  0  0  0  0  0  0
   -1.3809   -0.9166   -6.5465 O   0  0  0  0  0  0  0  0  0  0  0  0
   -2.1251    0.3490   -4.7246 C   0  0  1  0  0  0  0  0  0  0  0  0
   -3.5336    0.3749   -5.1434 C   0  0  0  0  0  0  0  0  0  0  0  0
   -4.3038    1.5747   -4.6074 C   0  0  0  0  0  0  0  0  0  0  0  0
   -4.2857   -0.9095   -4.8740 C   0  0  0  0  0  0  0  0  0  0  0  0
   -1.9835    0.4066   -3.2773 N   0  0  0  0  0  0  0  0  0  0  0  0
   -0.7627    1.0194   -2.8263 C   0  0  0  0  0  0  0  0  0  0  0  0
    0.0614    1.4339   -3.6878 O   0  0  0  0  0  0  0  0  0  0  0  0
   -0.4065    1.1891   -1.4121 C   0  0  0  0  0  0  0  0  0  0  0  0
    1.0835    1.4744   -1.2522 C   0  0  0  0  0  0  0  0  0  0  0  0
    1.3790    1.6531    0.1959 C   0  0  0  0  0  0  0  0  0  0  0  0
    2.8720    1.8593    0.4849 C   0  0  0  0  0  0  0  0  0  0  0  0
    2.9945    2.0332    2.0028 C   0  0  0  0  0  0  0  0  0  0  0  0
    4.3609    2.1807    2.4185 N   0  0  0  0  0  0  0  0  0  0  0  0
    5.1822    3.3289    2.5554 C   0  0  0  0  0  0  0  0  0  0  0  0
    4.7853    4.5050    2.2926 O   0  0  0  0  0  0  0  0  0  0  0  0
    6.4715    2.8693    3.0245 C   0  0  0  0  0  0  0  0  0  0  0  0
    6.5011    1.5592    3.1811 C   0  0  0  0  0  0  0  0  0  0  0  0
    5.1793    1.0578    2.8107 C   0  0  0  0  0  0  0  0  0  0  0  0
    4.7827   -0.1504    2.8190 O   0  0  0  0  0  0  0  0  0  0  0  0
   -3.6248   -2.3526    2.7911 H   0  0  0  0  0  0  0  0  0  0  0  0
   -4.6402   -3.5964    3.6155 H   0  0  0  0  0  0  0  0  0  0  0  0
   -2.8792   -3.7478    3.5605 H   0  0  0  0  0  0  0  0  0  0  0  0
   -3.8721   -3.1542    5.7462 H   0  0  0  0  0  0  0  0  0  0  0  0
   -4.2297   -1.5192    5.2549 H   0  0  0  0  0  0  0  0  0  0  0  0
   -1.6480   -3.1119    5.5231 H   0  0  0  0  0  0  0  0  0  0  0  0
   -3.0461   -1.8525    7.3171 H   0  0  0  0  0  0  0  0  0  0  0  0
   -2.1510   -0.3844    6.6906 H   0  0  0  0  0  0  0  0  0  0  0  0
   -1.2918   -1.8064    7.3590 H   0  0  0  0  0  0  0  0  0  0  0  0
   -1.4866   -1.9705    3.4083 H   0  0  0  0  0  0  0  0  0  0  0  0
   -0.6817    0.1740    3.1665 H   0  0  0  0  0  0  0  0  0  0  0  0
   -3.6732   -0.1269    3.5790 H   0  0  0  0  0  0  0  0  0  0  0  0
   -2.6502   -0.0952    2.1531 H   0  0  0  0  0  0  0  0  0  0  0  0
   -4.3915    0.4550    1.0514 H   0  0  0  0  0  0  0  0  0  0  0  0
   -3.9187    1.8274   -0.0452 H   0  0  0  0  0  0  0  0  0  0  0  0
   -6.3892    1.4441    1.6745 H   0  0  0  0  0  0  0  0  0  0  0  0
   -6.2553    2.2850    0.0595 H   0  0  0  0  0  0  0  0  0  0  0  0
   -5.9197    3.3252    2.8219 H   0  0  0  0  0  0  0  0  0  0  0  0
   -6.1777    4.2838    1.2702 H   0  0  0  0  0  0  0  0  0  0  0  0
   -3.9889    3.7563    0.4846 H   0  0  0  0  0  0  0  0  0  0  0  0
   -3.6074    4.7111    3.3992 H   0  0  0  0  0  0  0  0  0  0  0  0
   -1.8265    5.9045    2.7810 H   0  0  0  0  0  0  0  0  0  0  0  0
   -0.3220    4.7765    0.9543 H   0  0  0  0  0  0  0  0  0  0  0  0
   -1.3619    3.3711    1.1747 H   0  0  0  0  0  0  0  0  0  0  0  0
   -0.4738    4.1627    2.5972 H   0  0  0  0  0  0  0  0  0  0  0  0
   -3.0521    5.3147   -0.8813 H   0  0  0  0  0  0  0  0  0  0  0  0
   -2.1851    8.2404   -0.9389 H   0  0  0  0  0  0  0  0  0  0  0  0
   -4.8261    7.5744   -1.0459 H   0  0  0  0  0  0  0  0  0  0  0  0
   -4.0632    8.7826   -2.1346 H   0  0  0  0  0  0  0  0  0  0  0  0
   -4.3331    7.1597   -2.7794 H   0  0  0  0  0  0  0  0  0  0  0  0
   -1.9981    7.9025   -3.3495 H   0  0  0  0  0  0  0  0  0  0  0  0
   -0.0266    8.8460   -3.0704 H   0  0  0  0  0  0  0  0  0  0  0  0
    2.4176    8.7195   -2.7829 H   0  0  0  0  0  0  0  0  0  0  0  0
    3.4360    6.6329   -1.9360 H   0  0  0  0  0  0  0  0  0  0  0  0
    1.9261    4.7217   -1.3963 H   0  0  0  0  0  0  0  0  0  0  0  0
   -0.5085    4.8434   -1.6875 H   0  0  0  0  0  0  0  0  0  0  0  0
   -1.9851    5.0689   -3.0924 H   0  0  0  0  0  0  0  0  0  0  0  0
   -5.5087    5.7250    3.6190 H   0  0  0  0  0  0  0  0  0  0  0  0
   -4.0593    6.7499    3.8053 H   0  0  0  0  0  0  0  0  0  0  0  0
   -5.4791    7.3445    2.8917 H   0  0  0  0  0  0  0  0  0  0  0  0
    0.8630    1.0261    4.3583 H   0  0  0  0  0  0  0  0  0  0  0  0
    0.1609    2.5909    5.0086 H   0  0  0  0  0  0  0  0  0  0  0  0
   -0.1210    1.9493    3.2819 H   0  0  0  0  0  0  0  0  0  0  0  0
    0.9137   -2.0038    6.5599 H   0  0  0  0  0  0  0  0  0  0  0  0
    0.1370   -0.3292    6.2836 H   0  0  0  0  0  0  0  0  0  0  0  0
    1.7230   -0.7499    5.6363 H   0  0  0  0  0  0  0  0  0  0  0  0
    0.5377   -4.4576    3.2533 H   0  0  0  0  0  0  0  0  0  0  0  0
   -0.9756   -3.2401    1.7931 H   0  0  0  0  0  0  0  0  0  0  0  0
    0.7618   -1.9904   -0.1142 H   0  0  0  0  0  0  0  0  0  0  0  0
    1.3372   -1.4579    1.4737 H   0  0  0  0  0  0  0  0  0  0  0  0
   -0.4190   -1.2092    0.9932 H   0  0  0  0  0  0  0  0  0  0  0  0
    1.2525   -3.9140   -0.0160 H   0  0  0  0  0  0  0  0  0  0  0  0
   -0.5122   -4.1842   -0.1504 H   0  0  0  0  0  0  0  0  0  0  0  0
    0.4278   -5.2608    0.9771 H   0  0  0  0  0  0  0  0  0  0  0  0
    2.7190   -3.2415    1.6001 H   0  0  0  0  0  0  0  0  0  0  0  0
    5.1662   -4.8321    3.3094 H   0  0  0  0  0  0  0  0  0  0  0  0
    3.9556   -7.2242    1.8370 H   0  0  0  0  0  0  0  0  0  0  0  0
    5.0270   -8.1254    4.1227 H   0  0  0  0  0  0  0  0  0  0  0  0
    4.4974   -6.5444    4.7482 H   0  0  0  0  0  0  0  0  0  0  0  0
    3.3049   -7.7112    4.0144 H   0  0  0  0  0  0  0  0  0  0  0  0
    6.1561   -8.1254    2.1531 H   0  0  0  0  0  0  0  0  0  0  0  0
    6.7255   -6.6894    3.0777 H   0  0  0  0  0  0  0  0  0  0  0  0
    6.3521   -6.5667    1.2712 H   0  0  0  0  0  0  0  0  0  0  0  0
    3.6127   -4.2442   -0.4826 H   0  0  0  0  0  0  0  0  0  0  0  0
    4.4078   -5.8978   -0.3317 H   0  0  0  0  0  0  0  0  0  0  0  0
    2.9236   -5.5171    0.5852 H   0  0  0  0  0  0  0  0  0  0  0  0
    7.6000   -3.1694   -1.5400 H   0  0  0  0  0  0  0  0  0  0  0  0
    6.8657   -1.6051   -1.0949 H   0  0  0  0  0  0  0  0  0  0  0  0
    6.2202   -4.9413   -2.6790 H   0  0  0  0  0  0  0  0  0  0  0  0
    4.4065   -5.2339   -4.3454 H   0  0  0  0  0  0  0  0  0  0  0  0
    3.1910   -1.1392   -3.6472 H   0  0  0  0  0  0  0  0  0  0  0  0
    4.9336   -0.8704   -2.0155 H   0  0  0  0  0  0  0  0  0  0  0  0
    2.5319   -3.9250   -5.8756 H   0  0  0  0  0  0  0  0  0  0  0  0
    0.0495   -2.7025   -6.2107 H   0  0  0  0  0  0  0  0  0  0  0  0
   -0.1290   -5.0276   -5.3668 H   0  0  0  0  0  0  0  0  0  0  0  0
   -0.8159   -4.3015   -3.8001 H   0  0  0  0  0  0  0  0  0  0  0  0
   -2.7697   -3.6460   -4.8645 H   0  0  0  0  0  0  0  0  0  0  0  0
   -2.1975   -4.1355   -6.5555 H   0  0  0  0  0  0  0  0  0  0  0  0
   -2.3985   -5.8207   -4.0035 H   0  0  0  0  0  0  0  0  0  0  0  0
   -1.7680   -6.3959   -5.5658 H   0  0  0  0  0  0  0  0  0  0  0  0
   -4.5108   -5.3766   -6.0789 H   0  0  0  0  0  0  0  0  0  0  0  0
   -6.5308   -7.2308   -5.3912 H   0  0  0  0  0  0  0  0  0  0  0  0
   -5.7015   -8.6926   -6.1670 H   0  0  0  0  0  0  0  0  0  0  0  0
   -0.7912   -1.7479   -3.4013 H   0  0  0  0  0  0  0  0  0  0  0  0
   -1.5734    1.2139   -5.2045 H   0  0  0  0  0  0  0  0  0  0  0  0
   -3.5417    0.4817   -6.2684 H   0  0  0  0  0  0  0  0  0  0  0  0
   -4.0685    1.7435   -3.5295 H   0  0  0  0  0  0  0  0  0  0  0  0
   -5.4181    1.3770   -4.6332 H   0  0  0  0  0  0  0  0  0  0  0  0
   -4.1405    2.4887   -5.2098 H   0  0  0  0  0  0  0  0  0  0  0  0
   -4.1202   -1.6991   -5.6050 H   0  0  0  0  0  0  0  0  0  0  0  0
   -4.0485   -1.2185   -3.8211 H   0  0  0  0  0  0  0  0  0  0  0  0
   -5.4027   -0.7158   -4.8709 H   0  0  0  0  0  0  0  0  0  0  0  0
   -2.6760    0.0436   -2.5973 H   0  0  0  0  0  0  0  0  0  0  0  0
   -0.9330    2.1019   -1.0183 H   0  0  0  0  0  0  0  0  0  0  0  0
   -0.7076    0.3620   -0.7564 H   0  0  0  0  0  0  0  0  0  0  0  0
    1.2830    2.4208   -1.8065 H   0  0  0  0  0  0  0  0  0  0  0  0
    1.6953    0.6095   -1.6063 H   0  0  0  0  0  0  0  0  0  0  0  0
    0.9361    0.9269    0.8735 H   0  0  0  0  0  0  0  0  0  0  0  0
    0.9291    2.6463    0.5132 H   0  0  0  0  0  0  0  0  0  0  0  0
    3.2304    2.8076    0.0425 H   0  0  0  0  0  0  0  0  0  0  0  0
    3.4457    0.9997    0.1253 H   0  0  0  0  0  0  0  0  0  0  0  0
    2.5441    1.2134    2.5629 H   0  0  0  0  0  0  0  0  0  0  0  0
    2.4172    2.9683    2.2460 H   0  0  0  0  0  0  0  0  0  0  0  0
    7.3402    3.5084    3.2338 H   0  0  0  0  0  0  0  0  0  0  0  0
    7.2866    0.9016    3.5116 H   0  0  0  0  0  0  0  0  0  0  0  0
  1  2  1  0
  2  3  1  0
  3  4  1  0
  3  5  1  0
  5  6  1  0
  6  7  1  0
  7  8  1  0
  8  9  2  0
  8 10  1  0
 10 11  1  0
 11 12  1  0
 12 13  1  0
 13 14  1  0
 14 15  1  0
 15 16  1  0
 16 17  1  0
 16 18  1  0
 18 19  2  0
 18 20  1  0
 20 21  1  0
 21 22  1  0
 21 23  1  0
 23 24  1  0
 24 25  2  0
 25 26  1  0
 26 27  2  0
 27 28  1  0
 28 29  2  0
 23 30  1  0
 15 31  1  0
 31 32  1  0
  6 33  1  0
 33 34  1  0
  5 35  1  0
 35 36  1  0
 35 37  1  0
 37 38  2  0
 37 39  1  0
 39 40  1  0
 40 41  1  0
 40 42  1  0
 39 43  1  0
 43 44  1  0
 44 45  2  0
 44 46  1  0
 46 47  1  0
 47 48  1  0
 47 49  1  0
 46 50  1  0
 50 51  1  0
 50 52  1  0
 52 53  2  0
 52 54  1  0
 54 55  1  0
 55 56  1  0
 56 57  1  0
 57 58  2  0
 58 59  1  0
 59 60  2  0
 60 61  1  0
 59 62  1  0
 62 63  1  0
 63 64  2  0
 63 65  1  0
 65 66  1  0
 66 67  1  0
 67 68  1  0
 68 69  1  0
 69 70  1  0
 70 71  2  0
 70 72  1  0
 65 73  1  0
 73 74  1  0
 74 75  2  0
 74 76  1  0
 76 77  1  0
 77 78  1  0
 77 79  1  0
 76 80  1  0
 80 81  1  0
 81 82  2  0
 81 83  1  0
 83 84  1  0
 84 85  1  0
 85 86  1  0
 86 87  1  0
 87 88  1  0
 88 89  1  0
 89 90  2  0
 89 91  1  0
 91 92  2  0
 92 93  1  0
 93 94  2  0
 14 10  1  0
 29 24  1  0
 61 56  2  0
 93 88  1  0
  1 95  1  0
  1 96  1  0
  1 97  1  0
  2 98  1  0
  2 99  1  0
  3100  1  1
  4101  1  0
  4102  1  0
  4103  1  0
  5104  1  6
  6105  1  6
  7106  1  0
  7107  1  0
 11108  1  0
 11109  1  0
 12110  1  0
 12111  1  0
 13112  1  0
 13113  1  0
 14114  1  6
 15115  1  1
 16116  1  1
 17117  1  0
 17118  1  0
 17119  1  0
 20120  1  0
 21121  1  1
 22122  1  0
 22123  1  0
 22124  1  0
 23125  1  6
 25126  1  0
 26127  1  0
 27128  1  0
 28129  1  0
 29130  1  0
 30131  1  0
 32132  1  0
 32133  1  0
 32134  1  0
 34135  1  0
 34136  1  0
 34137  1  0
 36138  1  0
 36139  1  0
 36140  1  0
 39141  1  1
 40142  1  0
 41143  1  0
 41144  1  0
 41145  1  0
 42146  1  0
 42147  1  0
 42148  1  0
 43149  1  0
 46150  1  1
 47151  1  0
 48152  1  0
 48153  1  0
 48154  1  0
 49155  1  0
 49156  1  0
 49157  1  0
 51158  1  0
 51159  1  0
 51160  1  0
 55161  1  0
 55162  1  0
 57163  1  0
 58164  1  0
 60165  1  0
 61166  1  0
 62167  1  0
 65168  1  6
 66169  1  0
 66170  1  0
 67171  1  0
 67172  1  0
 68173  1  0
 68174  1  0
 69175  1  0
 72176  1  0
 72177  1  0
 73178  1  0
 76179  1  6
 77180  1  0
 78181  1  0
 78182  1  0
 78183  1  0
 79184  1  0
 79185  1  0
 79186  1  0
 80187  1  0
 83188  1  0
 83189  1  0
 84190  1  0
 84191  1  0
 85192  1  0
 85193  1  0
 86194  1  0
 86195  1  0
 87196  1  0
 87197  1  0
 91198  1  0
 92199  1  0
M  END
$$$$

     RDKit          3D

199202  0  0  0  0  0  0  0  0999 V2000
   -0.1199    2.6806   -5.3640 C   0  0  0  0  0  0  0  0  0  0  0  0
    0.5567    3.0738   -4.0251 C   0  0  0  0  0  0  0  0  0  0  0  0
    0.7799    1.8620   -3.2137 C   0  0  2  0  0  0  0  0  0  0  0  0
   -0.4734    1.1177   -2.8461 C   0  0  0  0  0  0  0  0  0  0  0  0
    1.7699    1.9194   -2.0827 C   0  0  1  0  0  0  0  0  0  0  0  0
    3.1308    2.2481   -2.5852 C   0  0  1  0  0  0  0  0  0  0  0  0
    3.6983    1.1229   -3.4519 C   0  0  0  0  0  0  0  0  0  0  0  0
    3.8146   -0.0733   -2.6223 C   0  0  0  0  0  0  0  0  0  0  0  0
    3.9143    0.1623   -1.3432 O   0  0  0  0  0  0  0  0  0  0  0  0
    3.8357   -1.4238   -2.9557 N   0  0  0  0  0  0  0  0  0  0  0  0
    3.9978   -2.4609   -1.9014 C   0  0  0  0  0  0  0  0  0  0  0  0
    4.7127   -3.5986   -2.5342 C   0  0  0  0  0  0  0  0  0  0  0  0
    4.8045   -3.2301   -3.9883 C   0  0  0  0  0  0  0  0  0  0  0  0
    3.7057   -2.2070   -4.1602 C   0  0  1  0  0  0  0  0  0  0  0  0
    2.3717   -2.9532   -4.1538 C   0  0  1  0  0  0  0  0  0  0  0  0
    1.2540   -1.9404   -4.3326 C   0  0  1  0  0  0  0  0  0  0  0  0
    1.3101   -1.2120   -5.6377 C   0  0  0  0  0  0  0  0  0  0  0  0
   -0.0821   -2.3870   -3.9197 C   0  0  0  0  0  0  0  0  0  0  0  0
   -1.0562   -2.5367   -4.7193 O   0  0  0  0  0  0  0  0  0  0  0  0
   -0.3428   -2.6720   -2.5475 N   0  0  0  0  0  0  0  0  0  0  0  0
   -1.6151   -3.0845   -2.0298 C   0  0  2  0  0  0  0  0  0  0  0  0
   -2.1214   -1.9355   -1.1273 C   0  0  0  0  0  0  0  0  0  0  0  0
   -1.4710   -4.2625   -1.1187 C   0  0  1  0  0  0  0  0  0  0  0  0
   -1.0193   -5.5109   -1.7369 C   0  0  0  0  0  0  0  0  0  0  0  0
    0.2909   -5.8379   -1.9890 C   0  0  0  0  0  0  0  0  0  0  0  0
    0.5435   -7.0624   -2.5771 C   0  0  0  0  0  0  0  0  0  0  0  0
   -0.4203   -7.9619   -2.9207 C   0  0  0  0  0  0  0  0  0  0  0  0
   -1.7321   -7.6416   -2.6723 C   0  0  0  0  0  0  0  0  0  0  0  0
   -2.0181   -6.4311   -2.0885 C   0  0  0  0  0  0  0  0  0  0  0  0
   -0.6044   -3.8894   -0.0671 O   0  0  0  0  0  0  0  0  0  0  0  0
    2.3693   -3.6999   -5.3536 O   0  0  0  0  0  0  0  0  0  0  0  0
    2.0993   -5.0460   -5.1272 C   0  0  0  0  0  0  0  0  0  0  0  0
    3.4085    3.4553   -3.0806 O   0  0  0  0  0  0  0  0  0  0  0  0
    4.3776    4.2183   -2.4884 C   0  0  0  0  0  0  0  0  0  0  0  0
    1.3540    2.6400   -0.9366 N   0  0  0  0  0  0  0  0  0  0  0  0
    1.1164    1.8134    0.2773 C   0  0  0  0  0  0  0  0  0  0  0  0
    1.1297    4.0278   -0.8165 C   0  0  0  0  0  0  0  0  0  0  0  0
    1.2943    4.8681   -1.7427 O   0  0  0  0  0  0  0  0  0  0  0  0
    0.6430    4.6510    0.4799 C   0  0  1  0  0  0  0  0  0  0  0  0
    1.7948    4.7955    1.4310 C   0  0  0  0  0  0  0  0  0  0  0  0
    1.3467    5.4276    2.7492 C   0  0  0  0  0  0  0  0  0  0  0  0
    2.9157    5.6252    0.8212 C   0  0  0  0  0  0  0  0  0  0  0  0
    0.0819    5.9877    0.1801 N   0  0  0  0  0  0  0  0  0  0  0  0
   -1.3126    5.9480   -0.1919 C   0  0  0  0  0  0  0  0  0  0  0  0
   -1.8847    4.8262   -0.2563 O   0  0  0  0  0  0  0  0  0  0  0  0
   -2.0616    7.1498   -0.4888 C   0  0  1  0  0  0  0  0  0  0  0  0
   -3.5028    6.9290   -0.7421 C   0  0  0  0  0  0  0  0  0  0  0  0
   -4.3388    6.3136    0.3103 C   0  0  0  0  0  0  0  0  0  0  0  0
   -4.2020    8.2368   -1.1628 C   0  0  0  0  0  0  0  0  0  0  0  0
   -1.7795    8.2535    0.4037 N   0  0  0  0  0  0  0  0  0  0  0  0
   -1.2581    9.5318   -0.0820 C   0  0  0  0  0  0  0  0  0  0  0  0
   -1.9943    8.1694    1.8275 C   0  0  0  0  0  0  0  0  0  0  0  0
   -1.8146    9.1468    2.5948 O   0  0  0  0  0  0  0  0  0  0  0  0
   -2.4043    6.9859    2.3701 O   0  0  0  0  0  0  0  0  0  0  0  0
   -2.6775    6.6429    3.6833 C   0  0  0  0  0  0  0  0  0  0  0  0
   -3.0702    5.2142    3.7051 C   0  0  0  0  0  0  0  0  0  0  0  0
   -4.3571    4.7490    3.5636 C   0  0  0  0  0  0  0  0  0  0  0  0
   -4.6153    3.3721    3.5880 C   0  0  0  0  0  0  0  0  0  0  0  0
   -3.6447    2.4326    3.7473 C   0  0  0  0  0  0  0  0  0  0  0  0
   -2.3441    2.9191    3.8897 C   0  0  0  0  0  0  0  0  0  0  0  0
   -2.0837    4.2675    3.8676 C   0  0  0  0  0  0  0  0  0  0  0  0
   -3.8076    1.0388    3.8048 N   0  0  0  0  0  0  0  0  0  0  0  0
   -5.0333    0.3299    3.8345 C   0  0  0  0  0  0  0  0  0  0  0  0
   -6.1366    0.9134    3.8153 O   0  0  0  0  0  0  0  0  0  0  0  0
   -4.9893   -1.1615    3.8919 C   0  0  1  0  0  0  0  0  0  0  0  0
   -5.8778   -1.7179    2.8124 C   0  0  0  0  0  0  0  0  0  0  0  0
   -5.4984   -1.3223    1.4197 C   0  0  0  0  0  0  0  0  0  0  0  0
   -6.4787   -1.9821    0.4828 C   0  0  0  0  0  0  0  0  0  0  0  0
   -7.8484   -1.5950    0.7074 N   0  0  0  0  0  0  0  0  0  0  0  0
   -8.8240   -2.1948   -0.1630 C   0  0  0  0  0  0  0  0  0  0  0  0
   -8.3725   -3.0035   -1.0385 O   0  0  0  0  0  0  0  0  0  0  0  0
  -10.1998   -1.9311   -0.0845 N   0  0  0  0  0  0  0  0  0  0  0  0
   -3.6599   -1.6872    3.7831 N   0  0  0  0  0  0  0  0  0  0  0  0
   -3.0329   -2.5486    4.7174 C   0  0  0  0  0  0  0  0  0  0  0  0
   -3.6244   -2.9304    5.7533 O   0  0  0  0  0  0  0  0  0  0  0  0
   -1.6421   -2.9745    4.4063 C   0  0  1  0  0  0  0  0  0  0  0  0
   -0.7105   -1.7487    4.3878 C   0  0  0  0  0  0  0  0  0  0  0  0
   -0.7351   -1.0729    5.7563 C   0  0  0  0  0  0  0  0  0  0  0  0
    0.6944   -2.2981    4.2064 C   0  0  0  0  0  0  0  0  0  0  0  0
   -1.0724   -3.8569    5.3951 N   0  0  0  0  0  0  0  0  0  0  0  0
   -0.5192   -5.0950    4.9266 C   0  0  0  0  0  0  0  0  0  0  0  0
   -0.5849   -5.2924    3.6897 O   0  0  0  0  0  0  0  0  0  0  0  0
    0.0888   -6.0653    5.8843 C   0  0  0  0  0  0  0  0  0  0  0  0
    0.5948   -7.2791    5.2192 C   0  0  0  0  0  0  0  0  0  0  0  0
    1.5917   -7.2302    4.1562 C   0  0  0  0  0  0  0  0  0  0  0  0
    2.9512   -6.6965    4.3549 C   0  0  0  0  0  0  0  0  0  0  0  0
    3.0980   -5.2749    4.7196 C   0  0  0  0  0  0  0  0  0  0  0  0
    4.5201   -4.8879    4.8375 N   0  0  0  0  0  0  0  0  0  0  0  0
    5.3353   -4.3840    3.7851 C   0  0  0  0  0  0  0  0  0  0  0  0
    4.9044   -4.2176    2.6108 O   0  0  0  0  0  0  0  0  0  0  0  0
    6.6653   -4.1251    4.3176 C   0  0  0  0  0  0  0  0  0  0  0  0
    6.6390   -4.4525    5.5948 C   0  0  0  0  0  0  0  0  0  0  0  0
    5.3320   -4.9396    6.0002 C   0  0  0  0  0  0  0  0  0  0  0  0
    4.9525   -5.3353    7.1269 O   0  0  0  0  0  0  0  0  0  0  0  0
   -1.2197    2.5639   -5.1895 H   0  0  0  0  0  0  0  0  0  0  0  0
   -0.0249    3.5774   -6.0074 H   0  0  0  0  0  0  0  0  0  0  0  0
    0.3665    1.8266   -5.8313 H   0  0  0  0  0  0  0  0  0  0  0  0
   -0.1828    3.7889   -3.6006 H   0  0  0  0  0  0  0  0  0  0  0  0
    1.4494    3.6473   -4.3081 H   0  0  0  0  0  0  0  0  0  0  0  0
    1.2926    1.1385   -3.9482 H   0  0  0  0  0  0  0  0  0  0  0  0
   -1.1536    1.7058   -2.1993 H   0  0  0  0  0  0  0  0  0  0  0  0
   -0.2057    0.1307   -2.4671 H   0  0  0  0  0  0  0  0  0  0  0  0
   -1.0641    0.9559   -3.7973 H   0  0  0  0  0  0  0  0  0  0  0  0
    1.8391    0.8192   -1.7757 H   0  0  0  0  0  0  0  0  0  0  0  0
    3.8428    2.1568   -1.6548 H   0  0  0  0  0  0  0  0  0  0  0  0
    3.2309    1.0126   -4.4135 H   0  0  0  0  0  0  0  0  0  0  0  0
    4.7661    1.4623   -3.6498 H   0  0  0  0  0  0  0  0  0  0  0  0
    4.4789   -2.0366   -1.0125 H   0  0  0  0  0  0  0  0  0  0  0  0
    2.9708   -2.8118   -1.6119 H   0  0  0  0  0  0  0  0  0  0  0  0
    4.1720   -4.5672   -2.3868 H   0  0  0  0  0  0  0  0  0  0  0  0
    5.7235   -3.7759   -2.0922 H   0  0  0  0  0  0  0  0  0  0  0  0
    5.7884   -2.7296   -4.1571 H   0  0  0  0  0  0  0  0  0  0  0  0
    4.6638   -4.0899   -4.6434 H   0  0  0  0  0  0  0  0  0  0  0  0
    3.7666   -1.6278   -5.0803 H   0  0  0  0  0  0  0  0  0  0  0  0
    2.2142   -3.6253   -3.3299 H   0  0  0  0  0  0  0  0  0  0  0  0
    1.5183   -1.1443   -3.5300 H   0  0  0  0  0  0  0  0  0  0  0  0
    1.3171   -1.9427   -6.4834 H   0  0  0  0  0  0  0  0  0  0  0  0
    0.3651   -0.6084   -5.7167 H   0  0  0  0  0  0  0  0  0  0  0  0
    2.1922   -0.5715   -5.7843 H   0  0  0  0  0  0  0  0  0  0  0  0
    0.4477   -2.5763   -1.8644 H   0  0  0  0  0  0  0  0  0  0  0  0
   -2.3456   -3.2432   -2.8564 H   0  0  0  0  0  0  0  0  0  0  0  0
   -2.5412   -2.3237   -0.1729 H   0  0  0  0  0  0  0  0  0  0  0  0
   -2.9033   -1.3637   -1.6306 H   0  0  0  0  0  0  0  0  0  0  0  0
   -1.2437   -1.3128   -0.8184 H   0  0  0  0  0  0  0  0  0  0  0  0
   -2.5053   -4.4073   -0.6755 H   0  0  0  0  0  0  0  0  0  0  0  0
    1.0664   -5.1387   -1.7246 H   0  0  0  0  0  0  0  0  0  0  0  0
    1.5817   -7.3070   -2.7670 H   0  0  0  0  0  0  0  0  0  0  0  0
   -0.2159   -8.9083   -3.3755 H   0  0  0  0  0  0  0  0  0  0  0  0
   -2.5570   -8.3025   -2.9188 H   0  0  0  0  0  0  0  0  0  0  0  0
   -3.0635   -6.1888   -1.8985 H   0  0  0  0  0  0  0  0  0  0  0  0
   -1.0763   -3.5395    0.7173 H   0  0  0  0  0  0  0  0  0  0  0  0
    1.0847   -5.1662   -4.6702 H   0  0  0  0  0  0  0  0  0  0  0  0
    2.8056   -5.5388   -4.4427 H   0  0  0  0  0  0  0  0  0  0  0  0
    2.1590   -5.5664   -6.0901 H   0  0  0  0  0  0  0  0  0  0  0  0
    5.3765    3.7243   -2.5077 H   0  0  0  0  0  0  0  0  0  0  0  0
    4.4730    5.1650   -3.0549 H   0  0  0  0  0  0  0  0  0  0  0  0
    4.1868    4.4672   -1.4408 H   0  0  0  0  0  0  0  0  0  0  0  0
    0.3175    2.1905    0.9128 H   0  0  0  0  0  0  0  0  0  0  0  0
    0.7205    0.8004   -0.0726 H   0  0  0  0  0  0  0  0  0  0  0  0
    2.0304    1.6599    0.8556 H   0  0  0  0  0  0  0  0  0  0  0  0
   -0.1567    4.0638    0.8985 H   0  0  0  0  0  0  0  0  0  0  0  0
    2.2151    3.8135    1.6733 H   0  0  0  0  0  0  0  0  0  0  0  0
    1.2822    4.6462    3.5123 H   0  0  0  0  0  0  0  0  0  0  0  0
    2.0239    6.2640    3.0297 H   0  0  0  0  0  0  0  0  0  0  0  0
    0.3415    5.8480    2.5568 H   0  0  0  0  0  0  0  0  0  0  0  0
    3.0053    6.5463    1.4532 H   0  0  0  0  0  0  0  0  0  0  0  0
    3.8764    5.0860    0.9187 H   0  0  0  0  0  0  0  0  0  0  0  0
    2.6836    5.9641   -0.2113 H   0  0  0  0  0  0  0  0  0  0  0  0
    0.6325    6.8559    0.2298 H   0  0  0  0  0  0  0  0  0  0  0  0
   -1.6899    7.5216   -1.5286 H   0  0  0  0  0  0  0  0  0  0  0  0
   -3.5895    6.2780   -1.6727 H   0  0  0  0  0  0  0  0  0  0  0  0
   -4.7315    6.9953    1.0911 H   0  0  0  0  0  0  0  0  0  0  0  0
   -5.2896    5.8660   -0.1497 H   0  0  0  0  0  0  0  0  0  0  0  0
   -3.8730    5.4244    0.7813 H   0  0  0  0  0  0  0  0  0  0  0  0
   -3.6388    8.6472   -2.0480 H   0  0  0  0  0  0  0  0  0  0  0  0
   -5.2210    8.0378   -1.5093 H   0  0  0  0  0  0  0  0  0  0  0  0
   -4.2485    8.9632   -0.3349 H   0  0  0  0  0  0  0  0  0  0  0  0
   -1.2805    9.6032   -1.1839 H   0  0  0  0  0  0  0  0  0  0  0  0
   -0.1875    9.6627    0.2094 H   0  0  0  0  0  0  0  0  0  0  0  0
   -1.8364   10.3858    0.3231 H   0  0  0  0  0  0  0  0  0  0  0  0
   -3.5047    7.2047    4.1476 H   0  0  0  0  0  0  0  0  0  0  0  0
   -1.7983    6.7971    4.3664 H   0  0  0  0  0  0  0  0  0  0  0  0
   -5.1429    5.4759    3.4333 H   0  0  0  0  0  0  0  0  0  0  0  0
   -5.6242    3.0801    3.4716 H   0  0  0  0  0  0  0  0  0  0  0  0
   -1.4956    2.2468    4.0235 H   0  0  0  0  0  0  0  0  0  0  0  0
   -1.0696    4.5890    3.9909 H   0  0  0  0  0  0  0  0  0  0  0  0
   -2.9364    0.4270    3.8280 H   0  0  0  0  0  0  0  0  0  0  0  0
   -5.4329   -1.5068    4.8762 H   0  0  0  0  0  0  0  0  0  0  0  0
   -5.9614   -2.8232    2.8637 H   0  0  0  0  0  0  0  0  0  0  0  0
   -6.9122   -1.3321    2.9806 H   0  0  0  0  0  0  0  0  0  0  0  0
   -4.4925   -1.7011    1.1805 H   0  0  0  0  0  0  0  0  0  0  0  0
   -5.5475   -0.2226    1.2597 H   0  0  0  0  0  0  0  0  0  0  0  0
   -6.4317   -3.1017    0.6583 H   0  0  0  0  0  0  0  0  0  0  0  0
   -6.2183   -1.7346   -0.5510 H   0  0  0  0  0  0  0  0  0  0  0  0
   -8.1680   -0.9255    1.4408 H   0  0  0  0  0  0  0  0  0  0  0  0
  -10.6200   -1.0292    0.2165 H   0  0  0  0  0  0  0  0  0  0  0  0
  -10.8560   -2.7232   -0.3557 H   0  0  0  0  0  0  0  0  0  0  0  0
   -3.1181   -1.3890    2.9119 H   0  0  0  0  0  0  0  0  0  0  0  0
   -1.6189   -3.3608    3.3891 H   0  0  0  0  0  0  0  0  0  0  0  0
   -0.9797   -1.0595    3.5838 H   0  0  0  0  0  0  0  0  0  0  0  0
   -1.7275   -1.0395    6.2073 H   0  0  0  0  0  0  0  0  0  0  0  0
    0.0204   -1.5290    6.4275 H   0  0  0  0  0  0  0  0  0  0  0  0
   -0.3805   -0.0206    5.5981 H   0  0  0  0  0  0  0  0  0  0  0  0
    1.4773   -1.5174    4.3297 H   0  0  0  0  0  0  0  0  0  0  0  0
    0.8000   -2.8465    3.2553 H   0  0  0  0  0  0  0  0  0  0  0  0
    0.8780   -3.0125    5.0502 H   0  0  0  0  0  0  0  0  0  0  0  0
   -1.0747   -3.5917    6.4004 H   0  0  0  0  0  0  0  0  0  0  0  0
   -0.7963   -6.4269    6.5379 H   0  0  0  0  0  0  0  0  0  0  0  0
    0.7784   -5.5959    6.5764 H   0  0  0  0  0  0  0  0  0  0  0  0
    1.0520   -7.9160    6.0653 H   0  0  0  0  0  0  0  0  0  0  0  0
   -0.2840   -7.9689    4.9355 H   0  0  0  0  0  0  0  0  0  0  0  0
    1.1929   -6.6949    3.2201 H   0  0  0  0  0  0  0  0  0  0  0  0
    1.7491   -8.3271    3.8236 H   0  0  0  0  0  0  0  0  0  0  0  0
    3.5115   -6.8399    3.3697 H   0  0  0  0  0  0  0  0  0  0  0  0
    3.5708   -7.3632    5.0451 H   0  0  0  0  0  0  0  0  0  0  0  0
    2.6918   -4.6360    3.8991 H   0  0  0  0  0  0  0  0  0  0  0  0
    2.6553   -4.9992    5.6843 H   0  0  0  0  0  0  0  0  0  0  0  0
    7.5142   -3.7313    3.7417 H   0  0  0  0  0  0  0  0  0  0  0  0
    7.5089   -4.3572    6.2351 H   0  0  0  0  0  0  0  0  0  0  0  0
  1  2  1  0
  2  3  1  0
  3  4  1  0
  3  5  1  0
  5  6  1  0
  6  7  1  0
  7  8  1  0
  8  9  2  0
  8 10  1  0
 10 11  1  0
 11 12  1  0
 12 13  1  0
 13 14  1  0
 14 15  1  0
 15 16  1  0
 16 17  1  0
 16 18  1  0
 18 19  2  0
 18 20  1  0
 20 21  1  0
 21 22  1  0
 21 23  1  0
 23 24  1  0
 24 25  2  0
 25 26  1  0
 26 27  2  0
 27 28  1  0
 28 29  2  0
 23 30  1  0
 15 31  1  0
 31 32  1  0
  6 33  1  0
 33 34  1  0
  5 35  1  0
 35 36  1  0
 35 37  1  0
 37 38  2  0
 37 39  1  0
 39 40  1  0
 40 41  1  0
 40 42  1  0
 39 43  1  0
 43 44  1  0
 44 45  2  0
 44 46  1  0
 46 47  1  0
 47 48  1  0
 47 49  1  0
 46 50  1  0
 50 51  1  0
 50 52  1  0
 52 53  2  0
 52 54  1  0
 54 55  1  0
 55 56  1  0
 56 57  1  0
 57 58  2  0
 58 59  1  0
 59 60  2  0
 60 61  1  0
 59 62  1  0
 62 63  1  0
 63 64  2  0
 63 65  1  0
 65 66  1  0
 66 67  1  0
 67 68  1  0
 68 69  1  0
 69 70  1  0
 70 71  2  0
 70 72  1  0
 65 73  1  0
 73 74  1  0
 74 75  2  0
 74 76  1  0
 76 77  1  0
 77 78  1  0
 77 79  1  0
 76 80  1  0
 80 81  1  0
 81 82  2  0
 81 83  1  0
 83 84  1  0
 84 85  1  0
 85 86  1  0
 86 87  1  0
 87 88  1  0
 88 89  1  0
 89 90  2  0
 89 91  1  0
 91 92  2  0
 92 93  1  0
 93 94  2  0
 14 10  1  0
 29 24  1  0
 61 56  2  0
 93 88  1  0
  1 95  1  0
  1 96  1  0
  1 97  1  0
  2 98  1  0
  2 99  1  0
  3100  1  6
  4101  1  0
  4102  1  0
  4103  1  0
  5104  1  1
  6105  1  1
  7106  1  0
  7107  1  0
 11108  1  0
 11109  1  0
 12110  1  0
 12111  1  0
 13112  1  0
 13113  1  0
 14114  1  6
 15115  1  1
 16116  1  1
 17117  1  0
 17118  1  0
 17119  1  0
 20120  1  0
 21121  1  6
 22122  1  0
 22123  1  0
 22124  1  0
 23125  1  1
 25126  1  0
 26127  1  0
 27128  1  0
 28129  1  0
 29130  1  0
 30131  1  0
 32132  1  0
 32133  1  0
 32134  1  0
 34135  1  0
 34136  1  0
 34137  1  0
 36138  1  0
 36139  1  0
 36140  1  0
 39141  1  1
 40142  1  0
 41143  1  0
 41144  1  0
 41145  1  0
 42146  1  0
 42147  1  0
 42148  1  0
 43149  1  0
 46150  1  6
 47151  1  0
 48152  1  0
 48153  1  0
 48154  1  0
 49155  1  0
 49156  1  0
 49157  1  0
 51158  1  0
 51159  1  0
 51160  1  0
 55161  1  0
 55162  1  0
 57163  1  0
 58164  1  0
 60165  1  0
 61166  1  0
 62167  1  0
 65168  1  1
 66169  1  0
 66170  1  0
 67171  1  0
 67172  1  0
 68173  1  0
 68174  1  0
 69175  1  0
 72176  1  0
 72177  1  0
 73178  1  0
 76179  1  6
 77180  1  0
 78181  1  0
 78182  1  0
 78183  1  0
 79184  1  0
 79185  1  0
 79186  1  0
 80187  1  0
 83188  1  0
 83189  1  0
 84190  1  0
 84191  1  0
 85192  1  0
 85193  1  0
 86194  1  0
 86195  1  0
 87196  1  0
 87197  1  0
 91198  1  0
 92199  1  0
M  END
$$$$

     RDKit          3D

199202  0  0  0  0  0  0  0  0999 V2000
   -0.1813    0.9982   -5.8395 C   0  0  0  0  0  0  0  0  0  0  0  0
    0.6649    2.1006   -6.3630 C   0  0  0  0  0  0  0  0  0  0  0  0
    2.1233    1.9450   -5.9106 C   0  0  2  0  0  0  0  0  0  0  0  0
    2.5519    0.6074   -6.4238 C   0  0  0  0  0  0  0  0  0  0  0  0
    2.2453    2.1278   -4.4103 C   0  0  1  0  0  0  0  0  0  0  0  0
    3.6476    2.0371   -3.9828 C   0  0  1  0  0  0  0  0  0  0  0  0
    3.8695    2.3041   -2.4875 C   0  0  0  0  0  0  0  0  0  0  0  0
    5.3269    2.1636   -2.2124 C   0  0  0  0  0  0  0  0  0  0  0  0
    6.1093    3.1420   -2.4204 O   0  0  0  0  0  0  0  0  0  0  0  0
    5.9108    0.9355   -1.7210 N   0  0  0  0  0  0  0  0  0  0  0  0
    7.3867    0.8468   -1.6549 C   0  0  0  0  0  0  0  0  0  0  0  0
    7.5151   -0.5438   -2.2913 C   0  0  0  0  0  0  0  0  0  0  0  0
    6.4514   -1.2887   -1.5046 C   0  0  0  0  0  0  0  0  0  0  0  0
    5.3005   -0.2696   -1.2875 C   0  0  1  0  0  0  0  0  0  0  0  0
    4.8622   -0.4819    0.0958 C   0  0  1  0  0  0  0  0  0  0  0  0
    4.0592    0.5111    0.8388 C   0  0  1  0  0  0  0  0  0  0  0  0
    3.7583   -0.1963    2.2124 C   0  0  0  0  0  0  0  0  0  0  0  0
    4.8006    1.7694    1.2197 C   0  0  0  0  0  0  0  0  0  0  0  0
    5.9812    1.9904    0.8888 O   0  0  0  0  0  0  0  0  0  0  0  0
    4.1650    2.7949    2.0054 N   0  0  0  0  0  0  0  0  0  0  0  0
    4.8258    4.0108    2.3811 C   0  0  2  0  0  0  0  0  0  0  0  0
    5.7640    4.4548    1.2620 C   0  0  0  0  0  0  0  0  0  0  0  0
    5.6322    3.9460    3.6325 C   0  0  1  0  0  0  0  0  0  0  0  0
    4.7318    3.6926    4.7730 C   0  0  0  0  0  0  0  0  0  0  0  0
    4.2582    2.4197    4.9679 C   0  0  0  0  0  0  0  0  0  0  0  0
    3.4097    2.0724    6.0171 C   0  0  0  0  0  0  0  0  0  0  0  0
    3.0484    3.0995    6.8898 C   0  0  0  0  0  0  0  0  0  0  0  0
    3.5295    4.3644    6.6800 C   0  0  0  0  0  0  0  0  0  0  0  0
    4.3621    4.7207    5.6564 C   0  0  0  0  0  0  0  0  0  0  0  0
    6.6467    2.9868    3.5630 O   0  0  0  0  0  0  0  0  0  0  0  0
    4.2343   -1.7317    0.2235 O   0  0  0  0  0  0  0  0  0  0  0  0
    4.8918   -2.6807    0.9339 C   0  0  0  0  0  0  0  0  0  0  0  0
    4.2158    0.8084   -4.3284 O   0  0  0  0  0  0  0  0  0  0  0  0
    5.3779    0.9867   -5.0833 C   0  0  0  0  0  0  0  0  0  0  0  0
    1.6749    3.4242   -4.1042 N   0  0  0  0  0  0  0  0  0  0  0  0
    2.3815    4.6348   -4.5238 C   0  0  0  0  0  0  0  0  0  0  0  0
    0.4738    3.4594   -3.3654 C   0  0  0  0  0  0  0  0  0  0  0  0
    0.0626    2.3112   -2.9715 O   0  0  0  0  0  0  0  0  0  0  0  0
   -0.3419    4.6128   -3.0042 C   0  0  1  0  0  0  0  0  0  0  0  0
   -1.1540    5.1959   -4.1689 C   0  0  0  0  0  0  0  0  0  0  0  0
   -2.0623    4.1684   -4.7506 C   0  0  0  0  0  0  0  0  0  0  0  0
   -0.3941    6.0541   -5.0800 C   0  0  0  0  0  0  0  0  0  0  0  0
   -1.3411    4.2651   -1.9824 N   0  0  0  0  0  0  0  0  0  0  0  0
   -1.1987    4.5891   -0.6131 C   0  0  0  0  0  0  0  0  0  0  0  0
   -0.2074    5.1833   -0.1368 O   0  0  0  0  0  0  0  0  0  0  0  0
   -2.2826    4.2007    0.3080 C   0  0  1  0  0  0  0  0  0  0  0  0
   -3.2086    3.1352   -0.1829 C   0  0  0  0  0  0  0  0  0  0  0  0
   -2.6381    1.8181   -0.5253 C   0  0  0  0  0  0  0  0  0  0  0  0
   -4.3440    2.9088    0.8265 C   0  0  0  0  0  0  0  0  0  0  0  0
   -1.9299    4.1550    1.6990 N   0  0  0  0  0  0  0  0  0  0  0  0
   -2.4146    5.0730    2.7116 C   0  0  0  0  0  0  0  0  0  0  0  0
   -1.0248    3.1369    2.1736 C   0  0  0  0  0  0  0  0  0  0  0  0
   -0.5621    2.3755    1.3034 O   0  0  0  0  0  0  0  0  0  0  0  0
   -0.6751    2.9767    3.4932 O   0  0  0  0  0  0  0  0  0  0  0  0
    0.1792    2.0092    4.0051 C   0  0  0  0  0  0  0  0  0  0  0  0
   -0.2070    0.6030    3.7985 C   0  0  0  0  0  0  0  0  0  0  0  0
   -1.0936   -0.0109    4.7724 C   0  0  0  0  0  0  0  0  0  0  0  0
   -1.4049   -1.3302    4.5100 C   0  0  0  0  0  0  0  0  0  0  0  0
   -1.0026   -2.1058    3.4905 C   0  0  0  0  0  0  0  0  0  0  0  0
   -0.1390   -1.4951    2.5514 C   0  0  0  0  0  0  0  0  0  0  0  0
    0.1767   -0.1844    2.8032 C   0  0  0  0  0  0  0  0  0  0  0  0
   -1.4754   -3.4529    3.2535 N   0  0  0  0  0  0  0  0  0  0  0  0
   -0.7684   -4.3532    2.4673 C   0  0  0  0  0  0  0  0  0  0  0  0
    0.3804   -3.9833    1.9929 O   0  0  0  0  0  0  0  0  0  0  0  0
   -1.1258   -5.7195    2.0503 C   0  0  1  0  0  0  0  0  0  0  0  0
    0.0783   -6.5997    2.2800 C   0  0  0  0  0  0  0  0  0  0  0  0
   -0.2043   -8.0421    1.8378 C   0  0  0  0  0  0  0  0  0  0  0  0
    1.0308   -8.8950    2.0626 C   0  0  0  0  0  0  0  0  0  0  0  0
    2.1483   -8.3421    1.3193 N   0  0  0  0  0  0  0  0  0  0  0  0
    2.1673   -8.1618   -0.0747 C   0  0  0  0  0  0  0  0  0  0  0  0
    1.1924   -8.4762   -0.8086 O   0  0  0  0  0  0  0  0  0  0  0  0
    3.3317   -7.6003   -0.6887 N   0  0  0  0  0  0  0  0  0  0  0  0
   -2.3234   -6.3333    2.4651 N   0  0  0  0  0  0  0  0  0  0  0  0
   -3.5598   -5.9163    1.9181 C   0  0  0  0  0  0  0  0  0  0  0  0
   -3.5062   -4.9370    1.1235 O   0  0  0  0  0  0  0  0  0  0  0  0
   -4.8763   -6.5121    2.1775 C   0  0  1  0  0  0  0  0  0  0  0  0
   -5.1299   -7.2652    3.4083 C   0  0  0  0  0  0  0  0  0  0  0  0
   -4.2982   -8.4682    3.6827 C   0  0  0  0  0  0  0  0  0  0  0  0
   -5.3104   -6.3874    4.6332 C   0  0  0  0  0  0  0  0  0  0  0  0
   -5.8881   -5.5348    1.9314 N   0  0  0  0  0  0  0  0  0  0  0  0
   -6.2504   -4.8908    0.7396 C   0  0  0  0  0  0  0  0  0  0  0  0
   -5.6484   -5.1452   -0.3250 O   0  0  0  0  0  0  0  0  0  0  0  0
   -7.3642   -3.9010    0.8378 C   0  0  0  0  0  0  0  0  0  0  0  0
   -7.2183   -2.8054   -0.1678 C   0  0  0  0  0  0  0  0  0  0  0  0
   -8.3813   -1.8084   -0.0180 C   0  0  0  0  0  0  0  0  0  0  0  0
   -8.1161   -0.6613   -0.9614 C   0  0  0  0  0  0  0  0  0  0  0  0
   -9.2746    0.3068   -0.7719 C   0  0  0  0  0  0  0  0  0  0  0  0
   -9.1638    1.5066   -1.5429 N   0  0  0  0  0  0  0  0  0  0  0  0
   -8.5318    2.6948   -1.0207 C   0  0  0  0  0  0  0  0  0  0  0  0
   -8.0195    2.8223    0.1466 O   0  0  0  0  0  0  0  0  0  0  0  0
   -8.5806    3.7304   -2.0637 C   0  0  0  0  0  0  0  0  0  0  0  0
   -9.1949    3.2249   -3.1529 C   0  0  0  0  0  0  0  0  0  0  0  0
   -9.5608    1.8556   -2.8487 C   0  0  0  0  0  0  0  0  0  0  0  0
  -10.1528    1.1041   -3.6588 O   0  0  0  0  0  0  0  0  0  0  0  0
    0.2894    0.3171   -5.1213 H   0  0  0  0  0  0  0  0  0  0  0  0
   -1.1154    1.3589   -5.3764 H   0  0  0  0  0  0  0  0  0  0  0  0
   -0.5159    0.3478   -6.7003 H   0  0  0  0  0  0  0  0  0  0  0  0
    0.6761    2.0942   -7.4619 H   0  0  0  0  0  0  0  0  0  0  0  0
    0.2901    3.1151   -6.0748 H   0  0  0  0  0  0  0  0  0  0  0  0
    2.6864    2.7335   -6.4314 H   0  0  0  0  0  0  0  0  0  0  0  0
    2.6338   -0.1683   -5.6062 H   0  0  0  0  0  0  0  0  0  0  0  0
    3.3793    0.6014   -7.1320 H   0  0  0  0  0  0  0  0  0  0  0  0
    1.6844    0.1822   -7.0297 H   0  0  0  0  0  0  0  0  0  0  0  0
    1.5970    1.3257   -3.9591 H   0  0  0  0  0  0  0  0  0  0  0  0
    4.2988    2.8003   -4.4805 H   0  0  0  0  0  0  0  0  0  0  0  0
    3.4702    3.3031   -2.2811 H   0  0  0  0  0  0  0  0  0  0  0  0
    3.3486    1.5702   -1.8605 H   0  0  0  0  0  0  0  0  0  0  0  0
    7.8048    0.8916   -0.6664 H   0  0  0  0  0  0  0  0  0  0  0  0
    7.8706    1.5891   -2.3005 H   0  0  0  0  0  0  0  0  0  0  0  0
    8.5013   -0.9768   -2.2061 H   0  0  0  0  0  0  0  0  0  0  0  0
    7.1437   -0.4610   -3.3202 H   0  0  0  0  0  0  0  0  0  0  0  0
    6.1281   -2.2295   -1.9041 H   0  0  0  0  0  0  0  0  0  0  0  0
    6.9556   -1.4843   -0.5065 H   0  0  0  0  0  0  0  0  0  0  0  0
    4.5251   -0.6332   -2.0394 H   0  0  0  0  0  0  0  0  0  0  0  0
    5.8176   -0.6327    0.7130 H   0  0  0  0  0  0  0  0  0  0  0  0
    3.0780    0.7331    0.4131 H   0  0  0  0  0  0  0  0  0  0  0  0
    3.1251    0.5322    2.7820 H   0  0  0  0  0  0  0  0  0  0  0  0
    4.6882   -0.2952    2.7785 H   0  0  0  0  0  0  0  0  0  0  0  0
    3.2847   -1.1525    2.0426 H   0  0  0  0  0  0  0  0  0  0  0  0
    3.1738    2.5883    2.2768 H   0  0  0  0  0  0  0  0  0  0  0  0
    4.0363    4.8196    2.3576 H   0  0  0  0  0  0  0  0  0  0  0  0
    5.2723    4.1105    0.3339 H   0  0  0  0  0  0  0  0  0  0  0  0
    5.8217    5.5677    1.2261 H   0  0  0  0  0  0  0  0  0  0  0  0
    6.7454    3.9861    1.3498 H   0  0  0  0  0  0  0  0  0  0  0  0
    6.1491    4.8964    3.8553 H   0  0  0  0  0  0  0  0  0  0  0  0
    4.5723    1.6682    4.2813 H   0  0  0  0  0  0  0  0  0  0  0  0
    3.0512    1.0647    6.1644 H   0  0  0  0  0  0  0  0  0  0  0  0
    2.3901    2.8192    7.7107 H   0  0  0  0  0  0  0  0  0  0  0  0
    3.2312    5.1529    7.3648 H   0  0  0  0  0  0  0  0  0  0  0  0
    4.7545    5.7126    5.4970 H   0  0  0  0  0  0  0  0  0  0  0  0
    6.5554    2.5183    2.6988 H   0  0  0  0  0  0  0  0  0  0  0  0
    4.2266   -3.6067    1.0527 H   0  0  0  0  0  0  0  0  0  0  0  0
    5.7650   -3.1631    0.3759 H   0  0  0  0  0  0  0  0  0  0  0  0
    5.2863   -2.4354    1.9043 H   0  0  0  0  0  0  0  0  0  0  0  0
    5.7490   -0.0300   -5.3605 H   0  0  0  0  0  0  0  0  0  0  0  0
    6.2206    1.4100   -4.4781 H   0  0  0  0  0  0  0  0  0  0  0  0
    5.1875    1.5571   -5.9815 H   0  0  0  0  0  0  0  0  0  0  0  0
    3.4919    4.5422   -4.4178 H   0  0  0  0  0  0  0  0  0  0  0  0
    2.1271    5.4908   -3.8744 H   0  0  0  0  0  0  0  0  0  0  0  0
    2.1867    4.8716   -5.5644 H   0  0  0  0  0  0  0  0  0  0  0  0
    0.2976    5.3954   -2.6064 H   0  0  0  0  0  0  0  0  0  0  0  0
   -1.8613    5.9164   -3.5999 H   0  0  0  0  0  0  0  0  0  0  0  0
   -1.9926    4.0571   -5.8451 H   0  0  0  0  0  0  0  0  0  0  0  0
   -3.1173    4.4492   -4.5604 H   0  0  0  0  0  0  0  0  0  0  0  0
   -1.8984    3.2137   -4.2099 H   0  0  0  0  0  0  0  0  0  0  0  0
    0.3171    6.6708   -4.4804 H   0  0  0  0  0  0  0  0  0  0  0  0
   -1.1132    6.8500   -5.4732 H   0  0  0  0  0  0  0  0  0  0  0  0
    0.0097    5.6089   -5.9859 H   0  0  0  0  0  0  0  0  0  0  0  0
   -2.1837    3.7566   -2.3130 H   0  0  0  0  0  0  0  0  0  0  0  0
   -2.9747    5.1408    0.2604 H   0  0  0  0  0  0  0  0  0  0  0  0
   -3.7465    3.5375   -1.0869 H   0  0  0  0  0  0  0  0  0  0  0  0
   -3.3597    1.3500   -1.2824 H   0  0  0  0  0  0  0  0  0  0  0  0
   -2.7526    1.1294    0.3460 H   0  0  0  0  0  0  0  0  0  0  0  0
   -1.6843    1.7964   -1.0308 H   0  0  0  0  0  0  0  0  0  0  0  0
   -3.9116    2.2834    1.6217 H   0  0  0  0  0  0  0  0  0  0  0  0
   -4.6606    3.9048    1.1929 H   0  0  0  0  0  0  0  0  0  0  0  0
   -5.1546    2.4082    0.2816 H   0  0  0  0  0  0  0  0  0  0  0  0
   -2.5390    6.0577    2.2583 H   0  0  0  0  0  0  0  0  0  0  0  0
   -1.6186    5.1732    3.4964 H   0  0  0  0  0  0  0  0  0  0  0  0
   -3.3862    4.7100    3.1062 H   0  0  0  0  0  0  0  0  0  0  0  0
    1.2277    2.1219    3.5887 H   0  0  0  0  0  0  0  0  0  0  0  0
    0.2987    2.1497    5.0943 H   0  0  0  0  0  0  0  0  0  0  0  0
   -1.4331    0.5611    5.6031 H   0  0  0  0  0  0  0  0  0  0  0  0
   -2.0793   -1.7847    5.2553 H   0  0  0  0  0  0  0  0  0  0  0  0
    0.2340   -1.9531    1.6877 H   0  0  0  0  0  0  0  0  0  0  0  0
    0.8680    0.2570    2.0464 H   0  0  0  0  0  0  0  0  0  0  0  0
   -2.3785   -3.7875    3.6830 H   0  0  0  0  0  0  0  0  0  0  0  0
   -1.2069   -5.6522    0.8702 H   0  0  0  0  0  0  0  0  0  0  0  0
    0.1404   -6.6909    3.4164 H   0  0  0  0  0  0  0  0  0  0  0  0
    1.0195   -6.2111    1.9154 H   0  0  0  0  0  0  0  0  0  0  0  0
   -1.0060   -8.4858    2.4602 H   0  0  0  0  0  0  0  0  0  0  0  0
   -0.5353   -8.0036    0.7954 H   0  0  0  0  0  0  0  0  0  0  0  0
    0.8691   -9.9371    1.7755 H   0  0  0  0  0  0  0  0  0  0  0  0
    1.2411   -8.8764    3.1430 H   0  0  0  0  0  0  0  0  0  0  0  0
    3.0065   -8.0538    1.8610 H   0  0  0  0  0  0  0  0  0  0  0  0
    3.7576   -6.7926   -0.1559 H   0  0  0  0  0  0  0  0  0  0  0  0
    3.7513   -7.9127   -1.5656 H   0  0  0  0  0  0  0  0  0  0  0  0
   -2.2973   -7.0890    3.1794 H   0  0  0  0  0  0  0  0  0  0  0  0
   -4.9774   -7.2136    1.2473 H   0  0  0  0  0  0  0  0  0  0  0  0
   -6.2029   -7.6861    3.2711 H   0  0  0  0  0  0  0  0  0  0  0  0
   -3.8020   -8.8659    2.7539 H   0  0  0  0  0  0  0  0  0  0  0  0
   -4.9859   -9.3284    3.9547 H   0  0  0  0  0  0  0  0  0  0  0  0
   -3.6344   -8.3801    4.5546 H   0  0  0  0  0  0  0  0  0  0  0  0
   -4.9720   -6.8690    5.5640 H   0  0  0  0  0  0  0  0  0  0  0  0
   -4.6759   -5.4817    4.5249 H   0  0  0  0  0  0  0  0  0  0  0  0
   -6.3802   -6.1128    4.8073 H   0  0  0  0  0  0  0  0  0  0  0  0
   -6.4586   -5.2591    2.8091 H   0  0  0  0  0  0  0  0  0  0  0  0
   -7.2727   -3.4054    1.8400 H   0  0  0  0  0  0  0  0  0  0  0  0
   -8.3583   -4.3797    0.8258 H   0  0  0  0  0  0  0  0  0  0  0  0
   -6.3192   -2.1931    0.0490 H   0  0  0  0  0  0  0  0  0  0  0  0
   -7.2759   -3.1875   -1.1850 H   0  0  0  0  0  0  0  0  0  0  0  0
   -9.3055   -2.3552   -0.2955 H   0  0  0  0  0  0  0  0  0  0  0  0
   -8.4236   -1.5047    1.0427 H   0  0  0  0  0  0  0  0  0  0  0  0
   -8.0703   -0.9997   -2.0124 H   0  0  0  0  0  0  0  0  0  0  0  0
   -7.1406   -0.2219   -0.7066 H   0  0  0  0  0  0  0  0  0  0  0  0
  -10.1974   -0.2871   -1.0475 H   0  0  0  0  0  0  0  0  0  0  0  0
   -9.3326    0.5159    0.3072 H   0  0  0  0  0  0  0  0  0  0  0  0
   -8.1649    4.7041   -1.9070 H   0  0  0  0  0  0  0  0  0  0  0  0
   -9.3317    3.8298   -4.0283 H   0  0  0  0  0  0  0  0  0  0  0  0
  1  2  1  0
  2  3  1  0
  3  4  1  0
  3  5  1  0
  5  6  1  0
  6  7  1  0
  7  8  1  0
  8  9  2  0
  8 10  1  0
 10 11  1  0
 11 12  1  0
 12 13  1  0
 13 14  1  0
 14 15  1  0
 15 16  1  0
 16 17  1  0
 16 18  1  0
 18 19  2  0
 18 20  1  0
 20 21  1  0
 21 22  1  0
 21 23  1  0
 23 24  1  0
 24 25  2  0
 25 26  1  0
 26 27  2  0
 27 28  1  0
 28 29  2  0
 23 30  1  0
 15 31  1  0
 31 32  1  0
  6 33  1  0
 33 34  1  0
  5 35  1  0
 35 36  1  0
 35 37  1  0
 37 38  2  0
 37 39  1  0
 39 40  1  0
 40 41  1  0
 40 42  1  0
 39 43  1  0
 43 44  1  0
 44 45  2  0
 44 46  1  0
 46 47  1  0
 47 48  1  0
 47 49  1  0
 46 50  1  0
 50 51  1  0
 50 52  1  0
 52 53  2  0
 52 54  1  0
 54 55  1  0
 55 56  1  0
 56 57  1  0
 57 58  2  0
 58 59  1  0
 59 60  2  0
 60 61  1  0
 59 62  1  0
 62 63  1  0
 63 64  2  0
 63 65  1  0
 65 66  1  0
 66 67  1  0
 67 68  1  0
 68 69  1  0
 69 70  1  0
 70 71  2  0
 70 72  1  0
 65 73  1  0
 73 74  1  0
 74 75  2  0
 74 76  1  0
 76 77  1  0
 77 78  1  0
 77 79  1  0
 76 80  1  0
 80 81  1  0
 81 82  2  0
 81 83  1  0
 83 84  1  0
 84 85  1  0
 85 86  1  0
 86 87  1  0
 87 88  1  0
 88 89  1  0
 89 90  2  0
 89 91  1  0
 91 92  2  0
 92 93  1  0
 93 94  2  0
 14 10  1  0
 29 24  1  0
 61 56  2  0
 93 88  1  0
  1 95  1  0
  1 96  1  0
  1 97  1  0
  2 98  1  0
  2 99  1  0
  3100  1  6
  4101  1  0
  4102  1  0
  4103  1  0
  5104  1  1
  6105  1  6
  7106  1  0
  7107  1  0
 11108  1  0
 11109  1  0
 12110  1  0
 12111  1  0
 13112  1  0
 13113  1  0
 14114  1  6
 15115  1  1
 16116  1  6
 17117  1  0
 17118  1  0
 17119  1  0
 20120  1  0
 21121  1  1
 22122  1  0
 22123  1  0
 22124  1  0
 23125  1  1
 25126  1  0
 26127  1  0
 27128  1  0
 28129  1  0
 29130  1  0
 30131  1  0
 32132  1  0
 32133  1  0
 32134  1  0
 34135  1  0
 34136  1  0
 34137  1  0
 36138  1  0
 36139  1  0
 36140  1  0
 39141  1  1
 40142  1  0
 41143  1  0
 41144  1  0
 41145  1  0
 42146  1  0
 42147  1  0
 42148  1  0
 43149  1  0
 46150  1  1
 47151  1  0
 48152  1  0
 48153  1  0
 48154  1  0
 49155  1  0
 49156  1  0
 49157  1  0
 51158  1  0
 51159  1  0
 51160  1  0
 55161  1  0
 55162  1  0
 57163  1  0
 58164  1  0
 60165  1  0
 61166  1  0
 62167  1  0
 65168  1  6
 66169  1  0
 66170  1  0
 67171  1  0
 67172  1  0
 68173  1  0
 68174  1  0
 69175  1  0
 72176  1  0
 72177  1  0
 73178  1  0
 76179  1  6
 77180  1  0
 78181  1  0
 78182  1  0
 78183  1  0
 79184  1  0
 79185  1  0
 79186  1  0
 80187  1  0
 83188  1  0
 83189  1  0
 84190  1  0
 84191  1  0
 85192  1  0
 85193  1  0
 86194  1  0
 86195  1  0
 87196  1  0
 87197  1  0
 91198  1  0
 92199  1  0
M  END
$$$$

     RDKit          3D

199202  0  0  0  0  0  0  0  0999 V2000
    1.2877    0.6078    5.1600 C   0  0  0  0  0  0  0  0  0  0  0  0
    0.5593    1.9038    4.7337 C   0  0  0  0  0  0  0  0  0  0  0  0
    1.0429    2.3038    3.3536 C   0  0  2  0  0  0  0  0  0  0  0  0
    2.5373    2.5447    3.4396 C   0  0  0  0  0  0  0  0  0  0  0  0
    0.2520    3.3136    2.6428 C   0  0  1  0  0  0  0  0  0  0  0  0
    0.0680    4.6646    3.1608 C   0  0  1  0  0  0  0  0  0  0  0  0
   -0.4798    4.9826    4.4706 C   0  0  0  0  0  0  0  0  0  0  0  0
   -1.8042    4.5728    4.9243 C   0  0  0  0  0  0  0  0  0  0  0  0
   -1.8444    3.9693    6.0566 O   0  0  0  0  0  0  0  0  0  0  0  0
   -3.0616    4.7808    4.2380 N   0  0  0  0  0  0  0  0  0  0  0  0
   -2.9879    5.4904    2.9207 C   0  0  0  0  0  0  0  0  0  0  0  0
   -4.3639    6.0954    2.7659 C   0  0  0  0  0  0  0  0  0  0  0  0
   -5.1884    5.0418    3.3863 C   0  0  0  0  0  0  0  0  0  0  0  0
   -4.3796    4.5041    4.5983 C   0  0  1  0  0  0  0  0  0  0  0  0
   -5.1150    3.3147    4.9439 C   0  0  1  0  0  0  0  0  0  0  0  0
   -4.7819    2.3569    6.0020 C   0  0  1  0  0  0  0  0  0  0  0  0
   -5.9533    1.3048    6.1043 C   0  0  0  0  0  0  0  0  0  0  0  0
   -3.6600    1.3898    5.6657 C   0  0  0  0  0  0  0  0  0  0  0  0
   -2.6515    1.2284    6.3673 O   0  0  0  0  0  0  0  0  0  0  0  0
   -3.7986    0.6237    4.4682 N   0  0  0  0  0  0  0  0  0  0  0  0
   -2.7333   -0.3152    4.1777 C   0  0  2  0  0  0  0  0  0  0  0  0
   -2.2281   -0.0417    2.7891 C   0  0  0  0  0  0  0  0  0  0  0  0
   -3.2511   -1.7451    4.2065 C   0  0  1  0  0  0  0  0  0  0  0  0
   -2.0785   -2.6538    4.0340 C   0  0  0  0  0  0  0  0  0  0  0  0
   -1.8891   -3.4288    2.9160 C   0  0  0  0  0  0  0  0  0  0  0  0
   -0.7867   -4.2264    2.8378 C   0  0  0  0  0  0  0  0  0  0  0  0
    0.1287   -4.2594    3.8578 C   0  0  0  0  0  0  0  0  0  0  0  0
   -0.0465   -3.4759    5.0091 C   0  0  0  0  0  0  0  0  0  0  0  0
   -1.1667   -2.6683    5.0857 C   0  0  0  0  0  0  0  0  0  0  0  0
   -3.7686   -1.9986    5.4853 O   0  0  0  0  0  0  0  0  0  0  0  0
   -6.4432    3.7418    5.2240 O   0  0  0  0  0  0  0  0  0  0  0  0
   -7.4301    3.3423    4.4014 C   0  0  0  0  0  0  0  0  0  0  0  0
    1.3370    5.3490    3.0516 O   0  0  0  0  0  0  0  0  0  0  0  0
    1.1622    6.4869    2.2611 C   0  0  0  0  0  0  0  0  0  0  0  0
    0.6174    3.3517    1.2085 N   0  0  0  0  0  0  0  0  0  0  0  0
    1.9122    3.7181    0.7263 C   0  0  0  0  0  0  0  0  0  0  0  0
   -0.4016    2.9560    0.3360 C   0  0  0  0  0  0  0  0  0  0  0  0
   -1.4759    2.5026    0.9196 O   0  0  0  0  0  0  0  0  0  0  0  0
   -0.4986    2.9580   -1.1298 C   0  0  1  0  0  0  0  0  0  0  0  0
    0.5795    2.3704   -1.9362 C   0  0  0  0  0  0  0  0  0  0  0  0
    0.8439    0.9050   -1.6582 C   0  0  0  0  0  0  0  0  0  0  0  0
    0.1290    2.3778   -3.4324 C   0  0  0  0  0  0  0  0  0  0  0  0
   -1.8063    2.2622   -1.3515 N   0  0  0  0  0  0  0  0  0  0  0  0
   -2.9995    3.0361   -1.3287 C   0  0  0  0  0  0  0  0  0  0  0  0
   -3.0428    4.2681   -1.1616 O   0  0  0  0  0  0  0  0  0  0  0  0
   -4.2731    2.2091   -1.5130 C   0  0  1  0  0  0  0  0  0  0  0  0
   -5.3889    3.0585   -1.9246 C   0  0  0  0  0  0  0  0  0  0  0  0
   -5.7108    4.1518   -0.8983 C   0  0  0  0  0  0  0  0  0  0  0  0
   -6.6682    2.3093   -2.1448 C   0  0  0  0  0  0  0  0  0  0  0  0
   -4.0494    1.1032   -2.3895 N   0  0  0  0  0  0  0  0  0  0  0  0
   -4.0364    1.2549   -3.8245 C   0  0  0  0  0  0  0  0  0  0  0  0
   -3.8201   -0.2212   -1.8911 C   0  0  0  0  0  0  0  0  0  0  0  0
   -3.6722   -0.2862   -0.6286 O   0  0  0  0  0  0  0  0  0  0  0  0
   -3.7571   -1.3390   -2.6819 O   0  0  0  0  0  0  0  0  0  0  0  0
   -3.4652   -2.6592   -2.2917 C   0  0  0  0  0  0  0  0  0  0  0  0
   -2.0389   -2.6887   -1.9185 C   0  0  0  0  0  0  0  0  0  0  0  0
   -1.4616   -2.4547   -0.7182 C   0  0  0  0  0  0  0  0  0  0  0  0
   -0.0624   -2.4830   -0.5525 C   0  0  0  0  0  0  0  0  0  0  0  0
    0.7648   -2.7494   -1.6019 C   0  0  0  0  0  0  0  0  0  0  0  0
    0.1836   -3.0013   -2.8602 C   0  0  0  0  0  0  0  0  0  0  0  0
   -1.1702   -2.9664   -2.9920 C   0  0  0  0  0  0  0  0  0  0  0  0
    2.1785   -2.7334   -1.6180 N   0  0  0  0  0  0  0  0  0  0  0  0
    3.0391   -3.7907   -1.2020 C   0  0  0  0  0  0  0  0  0  0  0  0
    2.4397   -4.8157   -0.7540 O   0  0  0  0  0  0  0  0  0  0  0  0
    4.5051   -3.6737   -1.3078 C   0  0  1  0  0  0  0  0  0  0  0  0
    5.0231   -4.5913   -2.4166 C   0  0  0  0  0  0  0  0  0  0  0  0
    4.7133   -6.0292   -2.2022 C   0  0  0  0  0  0  0  0  0  0  0  0
    5.2980   -6.7178   -1.0323 C   0  0  0  0  0  0  0  0  0  0  0  0
    4.9275   -6.3157    0.2795 N   0  0  0  0  0  0  0  0  0  0  0  0
    5.5971   -7.0137    1.3657 C   0  0  0  0  0  0  0  0  0  0  0  0
    6.4485   -7.9181    1.0912 O   0  0  0  0  0  0  0  0  0  0  0  0
    5.3085   -6.6948    2.7084 N   0  0  0  0  0  0  0  0  0  0  0  0
    4.7934   -2.3204   -1.8115 N   0  0  0  0  0  0  0  0  0  0  0  0
    5.7016   -1.9527   -2.7919 C   0  0  0  0  0  0  0  0  0  0  0  0
    6.4764   -2.6656   -3.4574 O   0  0  0  0  0  0  0  0  0  0  0  0
    5.7667   -0.4680   -3.1270 C   0  0  1  0  0  0  0  0  0  0  0  0
    6.5846    0.3081   -2.1687 C   0  0  0  0  0  0  0  0  0  0  0  0
    6.1050    0.2680   -0.7431 C   0  0  0  0  0  0  0  0  0  0  0  0
    8.0314   -0.1849   -2.2135 C   0  0  0  0  0  0  0  0  0  0  0  0
    6.3800   -0.3604   -4.4580 N   0  0  0  0  0  0  0  0  0  0  0  0
    5.4488   -0.5675   -5.5338 C   0  0  0  0  0  0  0  0  0  0  0  0
    4.2665   -0.8201   -5.1505 O   0  0  0  0  0  0  0  0  0  0  0  0
    5.8006   -0.5049   -6.9531 C   0  0  0  0  0  0  0  0  0  0  0  0
    4.6298   -0.9024   -7.8019 C   0  0  0  0  0  0  0  0  0  0  0  0
    3.4650    0.0279   -7.6704 C   0  0  0  0  0  0  0  0  0  0  0  0
    2.2890   -0.4921   -8.5012 C   0  0  0  0  0  0  0  0  0  0  0  0
    1.1290    0.4399   -8.3311 C   0  0  0  0  0  0  0  0  0  0  0  0
    1.3995    1.7812   -8.7683 N   0  0  0  0  0  0  0  0  0  0  0  0
    1.9111    2.8832   -8.0511 C   0  0  0  0  0  0  0  0  0  0  0  0
    2.2470    2.8950   -6.8341 O   0  0  0  0  0  0  0  0  0  0  0  0
    1.9766    4.0077   -8.9800 C   0  0  0  0  0  0  0  0  0  0  0  0
    1.5400    3.6377  -10.1852 C   0  0  0  0  0  0  0  0  0  0  0  0
    1.1628    2.2366  -10.1005 C   0  0  0  0  0  0  0  0  0  0  0  0
    0.6973    1.5220  -11.0417 O   0  0  0  0  0  0  0  0  0  0  0  0
    2.0764    0.7989    5.8947 H   0  0  0  0  0  0  0  0  0  0  0  0
    1.7208    0.1147    4.2703 H   0  0  0  0  0  0  0  0  0  0  0  0
    0.5833   -0.1185    5.6213 H   0  0  0  0  0  0  0  0  0  0  0  0
   -0.4984    1.6828    4.7363 H   0  0  0  0  0  0  0  0  0  0  0  0
    0.8571    2.6288    5.5140 H   0  0  0  0  0  0  0  0  0  0  0  0
    0.9705    1.3233    2.7716 H   0  0  0  0  0  0  0  0  0  0  0  0
    3.0960    2.2088    2.5498 H   0  0  0  0  0  0  0  0  0  0  0  0
    2.9230    1.8580    4.2654 H   0  0  0  0  0  0  0  0  0  0  0  0
    2.8086    3.5821    3.6663 H   0  0  0  0  0  0  0  0  0  0  0  0
   -0.8272    2.8759    2.6106 H   0  0  0  0  0  0  0  0  0  0  0  0
   -0.5167    5.3246    2.4173 H   0  0  0  0  0  0  0  0  0  0  0  0
    0.3107    4.8355    5.2669 H   0  0  0  0  0  0  0  0  0  0  0  0
   -0.5472    6.1566    4.5583 H   0  0  0  0  0  0  0  0  0  0  0  0
   -2.7890    4.8421    2.0981 H   0  0  0  0  0  0  0  0  0  0  0  0
   -2.3158    6.3664    3.0408 H   0  0  0  0  0  0  0  0  0  0  0  0
   -4.6516    6.1411    1.6718 H   0  0  0  0  0  0  0  0  0  0  0  0
   -4.5003    7.0598    3.2708 H   0  0  0  0  0  0  0  0  0  0  0  0
   -6.1785    5.3823    3.7148 H   0  0  0  0  0  0  0  0  0  0  0  0
   -5.3061    4.1778    2.7055 H   0  0  0  0  0  0  0  0  0  0  0  0
   -4.6323    5.3532    5.3849 H   0  0  0  0  0  0  0  0  0  0  0  0
   -5.2924    2.7352    3.9537 H   0  0  0  0  0  0  0  0  0  0  0  0
   -4.7218    2.7678    6.9976 H   0  0  0  0  0  0  0  0  0  0  0  0
   -5.6152    0.5376    6.8731 H   0  0  0  0  0  0  0  0  0  0  0  0
   -6.0855    0.7491    5.2026 H   0  0  0  0  0  0  0  0  0  0  0  0
   -6.8463    1.7318    6.5146 H   0  0  0  0  0  0  0  0  0  0  0  0
   -4.6087    0.7164    3.8214 H   0  0  0  0  0  0  0  0  0  0  0  0
   -1.9139   -0.2686    4.8882 H   0  0  0  0  0  0  0  0  0  0  0  0
   -2.9649    0.5838    2.2057 H   0  0  0  0  0  0  0  0  0  0  0  0
   -2.0972   -0.9669    2.1932 H   0  0  0  0  0  0  0  0  0  0  0  0
   -1.2829    0.5252    2.7831 H   0  0  0  0  0  0  0  0  0  0  0  0
   -3.9795   -1.9827    3.4400 H   0  0  0  0  0  0  0  0  0  0  0  0
   -2.6249   -3.3956    2.1278 H   0  0  0  0  0  0  0  0  0  0  0  0
   -0.5878   -4.8622    1.9620 H   0  0  0  0  0  0  0  0  0  0  0  0
    1.0129   -4.8645    3.8503 H   0  0  0  0  0  0  0  0  0  0  0  0
    0.6847   -3.5092    5.8092 H   0  0  0  0  0  0  0  0  0  0  0  0
   -1.2994   -2.0646    5.9751 H   0  0  0  0  0  0  0  0  0  0  0  0
   -4.5780   -1.4279    5.5945 H   0  0  0  0  0  0  0  0  0  0  0  0
   -8.4537    3.7599    4.7195 H   0  0  0  0  0  0  0  0  0  0  0  0
   -7.4086    3.5607    3.3315 H   0  0  0  0  0  0  0  0  0  0  0  0
   -7.6665    2.2258    4.4099 H   0  0  0  0  0  0  0  0  0  0  0  0
    0.4226    7.1829    2.7179 H   0  0  0  0  0  0  0  0  0  0  0  0
    2.1367    7.0076    2.2457 H   0  0  0  0  0  0  0  0  0  0  0  0
    0.8389    6.3053    1.2424 H   0  0  0  0  0  0  0  0  0  0  0  0
    1.8343    4.4501   -0.1315 H   0  0  0  0  0  0  0  0  0  0  0  0
    2.4478    2.8280    0.2699 H   0  0  0  0  0  0  0  0  0  0  0  0
    2.5764    4.2340    1.4347 H   0  0  0  0  0  0  0  0  0  0  0  0
   -0.7000    4.0315   -1.4113 H   0  0  0  0  0  0  0  0  0  0  0  0
    1.5538    2.8924   -1.8781 H   0  0  0  0  0  0  0  0  0  0  0  0
    1.7228    0.8535   -0.9466 H   0  0  0  0  0  0  0  0  0  0  0  0
    1.2318    0.4174   -2.5770 H   0  0  0  0  0  0  0  0  0  0  0  0
    0.0421    0.3750   -1.1542 H   0  0  0  0  0  0  0  0  0  0  0  0
   -0.4448    1.4695   -3.6439 H   0  0  0  0  0  0  0  0  0  0  0  0
   -0.5364    3.2521   -3.5263 H   0  0  0  0  0  0  0  0  0  0  0  0
    1.0004    2.5161   -4.0819 H   0  0  0  0  0  0  0  0  0  0  0  0
   -1.7727    1.2426   -1.5052 H   0  0  0  0  0  0  0  0  0  0  0  0
   -4.3859    1.8336   -0.4385 H   0  0  0  0  0  0  0  0  0  0  0  0
   -5.1680    3.6091   -2.8760 H   0  0  0  0  0  0  0  0  0  0  0  0
   -5.4075    3.8463    0.1200 H   0  0  0  0  0  0  0  0  0  0  0  0
   -5.2550    5.1344   -1.1813 H   0  0  0  0  0  0  0  0  0  0  0  0
   -6.8200    4.3369   -0.8539 H   0  0  0  0  0  0  0  0  0  0  0  0
   -6.6854    1.7353   -3.0887 H   0  0  0  0  0  0  0  0  0  0  0  0
   -7.4754    3.0925   -2.2732 H   0  0  0  0  0  0  0  0  0  0  0  0
   -6.9572    1.7374   -1.2464 H   0  0  0  0  0  0  0  0  0  0  0  0
   -2.9448    1.3784   -4.0975 H   0  0  0  0  0  0  0  0  0  0  0  0
   -4.3655    0.3532   -4.3704 H   0  0  0  0  0  0  0  0  0  0  0  0
   -4.5939    2.1636   -4.1793 H   0  0  0  0  0  0  0  0  0  0  0  0
   -3.6551   -3.3089   -3.1521 H   0  0  0  0  0  0  0  0  0  0  0  0
   -4.1113   -2.9755   -1.4386 H   0  0  0  0  0  0  0  0  0  0  0  0
   -2.0801   -2.2520    0.1383 H   0  0  0  0  0  0  0  0  0  0  0  0
    0.3869   -2.2979    0.4053 H   0  0  0  0  0  0  0  0  0  0  0  0
    0.7944   -3.2230   -3.7234 H   0  0  0  0  0  0  0  0  0  0  0  0
   -1.5735   -3.1686   -3.9882 H   0  0  0  0  0  0  0  0  0  0  0  0
    2.5726   -1.8125   -2.0087 H   0  0  0  0  0  0  0  0  0  0  0  0
    5.0551   -3.8296   -0.4098 H   0  0  0  0  0  0  0  0  0  0  0  0
    6.1703   -4.5524   -2.3720 H   0  0  0  0  0  0  0  0  0  0  0  0
    4.7474   -4.2197   -3.4125 H   0  0  0  0  0  0  0  0  0  0  0  0
    3.5937   -6.2103   -2.1686 H   0  0  0  0  0  0  0  0  0  0  0  0
    5.0371   -6.6131   -3.1275 H   0  0  0  0  0  0  0  0  0  0  0  0
    6.4457   -6.7104   -1.0846 H   0  0  0  0  0  0  0  0  0  0  0  0
    5.0648   -7.8324   -1.0821 H   0  0  0  0  0  0  0  0  0  0  0  0
    4.2373   -5.6209    0.5902 H   0  0  0  0  0  0  0  0  0  0  0  0
    5.1588   -7.4247    3.4203 H   0  0  0  0  0  0  0  0  0  0  0  0
    5.2571   -5.6605    2.9377 H   0  0  0  0  0  0  0  0  0  0  0  0
    4.2511   -1.5660   -1.3206 H   0  0  0  0  0  0  0  0  0  0  0  0
    4.7271   -0.1397   -3.1597 H   0  0  0  0  0  0  0  0  0  0  0  0
    6.6318    1.3593   -2.5443 H   0  0  0  0  0  0  0  0  0  0  0  0
    6.6735    1.0057   -0.1243 H   0  0  0  0  0  0  0  0  0  0  0  0
    6.2380   -0.7540   -0.3505 H   0  0  0  0  0  0  0  0  0  0  0  0
    5.0479    0.5911   -0.7177 H   0  0  0  0  0  0  0  0  0  0  0  0
    8.0787   -1.2820   -2.3987 H   0  0  0  0  0  0  0  0  0  0  0  0
    8.5478    0.3412   -3.0419 H   0  0  0  0  0  0  0  0  0  0  0  0
    8.5101    0.1205   -1.2759 H   0  0  0  0  0  0  0  0  0  0  0  0
    7.3721   -0.1613   -4.6244 H   0  0  0  0  0  0  0  0  0  0  0  0
    6.1339    0.5371   -7.1817 H   0  0  0  0  0  0  0  0  0  0  0  0
    6.6842   -1.1481   -7.1564 H   0  0  0  0  0  0  0  0  0  0  0  0
    4.3434   -1.9474   -7.4822 H   0  0  0  0  0  0  0  0  0  0  0  0
    4.9880   -0.9658   -8.8621 H   0  0  0  0  0  0  0  0  0  0  0  0
    3.7105    1.0209   -8.1650 H   0  0  0  0  0  0  0  0  0  0  0  0
    3.1767    0.2281   -6.6520 H   0  0  0  0  0  0  0  0  0  0  0  0
    2.5522   -0.6486   -9.5480 H   0  0  0  0  0  0  0  0  0  0  0  0
    2.0588   -1.5091   -8.0779 H   0  0  0  0  0  0  0  0  0  0  0  0
    0.2522    0.0087   -8.8757 H   0  0  0  0  0  0  0  0  0  0  0  0
    0.8078    0.4169   -7.2460 H   0  0  0  0  0  0  0  0  0  0  0  0
    2.3318    4.9781   -8.6844 H   0  0  0  0  0  0  0  0  0  0  0  0
    1.4600    4.2422  -11.0949 H   0  0  0  0  0  0  0  0  0  0  0  0
  1  2  1  0
  2  3  1  0
  3  4  1  0
  3  5  1  0
  5  6  1  0
  6  7  1  0
  7  8  1  0
  8  9  2  0
  8 10  1  0
 10 11  1  0
 11 12  1  0
 12 13  1  0
 13 14  1  0
 14 15  1  0
 15 16  1  0
 16 17  1  0
 16 18  1  0
 18 19  2  0
 18 20  1  0
 20 21  1  0
 21 22  1  0
 21 23  1  0
 23 24  1  0
 24 25  2  0
 25 26  1  0
 26 27  2  0
 27 28  1  0
 28 29  2  0
 23 30  1  0
 15 31  1  0
 31 32  1  0
  6 33  1  0
 33 34  1  0
  5 35  1  0
 35 36  1  0
 35 37  1  0
 37 38  2  0
 37 39  1  0
 39 40  1  0
 40 41  1  0
 40 42  1  0
 39 43  1  0
 43 44  1  0
 44 45  2  0
 44 46  1  0
 46 47  1  0
 47 48  1  0
 47 49  1  0
 46 50  1  0
 50 51  1  0
 50 52  1  0
 52 53  2  0
 52 54  1  0
 54 55  1  0
 55 56  1  0
 56 57  1  0
 57 58  2  0
 58 59  1  0
 59 60  2  0
 60 61  1  0
 59 62  1  0
 62 63  1  0
 63 64  2  0
 63 65  1  0
 65 66  1  0
 66 67  1  0
 67 68  1  0
 68 69  1  0
 69 70  1  0
 70 71  2  0
 70 72  1  0
 65 73  1  0
 73 74  1  0
 74 75  2  0
 74 76  1  0
 76 77  1  0
 77 78  1  0
 77 79  1  0
 76 80  1  0
 80 81  1  0
 81 82  2  0
 81 83  1  0
 83 84  1  0
 84 85  1  0
 85 86  1  0
 86 87  1  0
 87 88  1  0
 88 89  1  0
 89 90  2  0
 89 91  1  0
 91 92  2  0
 92 93  1  0
 93 94  2  0
 14 10  1  0
 29 24  1  0
 61 56  2  0
 93 88  1  0
  1 95  1  0
  1 96  1  0
  1 97  1  0
  2 98  1  0
  2 99  1  0
  3100  1  6
  4101  1  0
  4102  1  0
  4103  1  0
  5104  1  6
  6105  1  6
  7106  1  0
  7107  1  0
 11108  1  0
 11109  1  0
 12110  1  0
 12111  1  0
 13112  1  0
 13113  1  0
 14114  1  1
 15115  1  6
 16116  1  1
 17117  1  0
 17118  1  0
 17119  1  0
 20120  1  0
 21121  1  1
 22122  1  0
 22123  1  0
 22124  1  0
 23125  1  6
 25126  1  0
 26127  1  0
 27128  1  0
 28129  1  0
 29130  1  0
 30131  1  0
 32132  1  0
 32133  1  0
 32134  1  0
 34135  1  0
 34136  1  0
 34137  1  0
 36138  1  0
 36139  1  0
 36140  1  0
 39141  1  6
 40142  1  0
 41143  1  0
 41144  1  0
 41145  1  0
 42146  1  0
 42147  1  0
 42148  1  0
 43149  1  0
 46150  1  1
 47151  1  0
 48152  1  0
 48153  1  0
 48154  1  0
 49155  1  0
 49156  1  0
 49157  1  0
 51158  1  0
 51159  1  0
 51160  1  0
 55161  1  0
 55162  1  0
 57163  1  0
 58164  1  0
 60165  1  0
 61166  1  0
 62167  1  0
 65168  1  1
 66169  1  0
 66170  1  0
 67171  1  0
 67172  1  0
 68173  1  0
 68174  1  0
 69175  1  0
 72176  1  0
 72177  1  0
 73178  1  0
 76179  1  6
 77180  1  0
 78181  1  0
 78182  1  0
 78183  1  0
 79184  1  0
 79185  1  0
 79186  1  0
 80187  1  0
 83188  1  0
 83189  1  0
 84190  1  0
 84191  1  0
 85192  1  0
 85193  1  0
 86194  1  0
 86195  1  0
 87196  1  0
 87197  1  0
 91198  1  0
 92199  1  0
M  END
$$$$

     RDKit          3D

199202  0  0  0  0  0  0  0  0999 V2000
   -1.8939   -4.8478   -3.4062 C   0  0  0  0  0  0  0  0  0  0  0  0
   -2.3035   -3.9062   -2.3749 C   0  0  0  0  0  0  0  0  0  0  0  0
   -1.8476   -2.5606   -2.1835 C   0  0  2  0  0  0  0  0  0  0  0  0
   -2.5609   -1.9220   -0.9588 C   0  0  0  0  0  0  0  0  0  0  0  0
   -1.5643   -1.5375   -3.2278 C   0  0  1  0  0  0  0  0  0  0  0  0
   -0.4950   -1.8653   -4.1326 C   0  0  1  0  0  0  0  0  0  0  0  0
    0.4954   -0.6816   -4.4991 C   0  0  0  0  0  0  0  0  0  0  0  0
    1.2795   -0.2447   -3.3197 C   0  0  0  0  0  0  0  0  0  0  0  0
    0.9184   -0.6009   -2.1609 O   0  0  0  0  0  0  0  0  0  0  0  0
    2.4260    0.5487   -3.5793 N   0  0  0  0  0  0  0  0  0  0  0  0
    2.6348    1.0933   -4.9810 C   0  0  0  0  0  0  0  0  0  0  0  0
    3.1550    2.4894   -4.7251 C   0  0  0  0  0  0  0  0  0  0  0  0
    3.5618    2.5029   -3.2680 C   0  0  0  0  0  0  0  0  0  0  0  0
    3.6025    0.9938   -2.9524 C   0  0  1  0  0  0  0  0  0  0  0  0
    3.9848    0.7516   -1.5472 C   0  0  1  0  0  0  0  0  0  0  0  0
    4.1733   -0.7010   -1.2064 C   0  0  1  0  0  0  0  0  0  0  0  0
    5.2822   -1.2811   -2.1269 C   0  0  0  0  0  0  0  0  0  0  0  0
    4.6643   -0.9822    0.1569 C   0  0  0  0  0  0  0  0  0  0  0  0
    5.4062   -2.0328    0.2744 O   0  0  0  0  0  0  0  0  0  0  0  0
    4.4223   -0.2596    1.3161 N   0  0  0  0  0  0  0  0  0  0  0  0
    4.8958   -0.5563    2.6303 C   0  0  2  0  0  0  0  0  0  0  0  0
    4.1057    0.0430    3.7424 C   0  0  0  0  0  0  0  0  0  0  0  0
    6.3580   -0.2609    2.8849 C   0  0  1  0  0  0  0  0  0  0  0  0
    7.2824   -1.2966    2.3966 C   0  0  0  0  0  0  0  0  0  0  0  0
    7.1675   -2.5489    3.0049 C   0  0  0  0  0  0  0  0  0  0  0  0
    7.9839   -3.5870    2.6154 C   0  0  0  0  0  0  0  0  0  0  0  0
    8.9321   -3.4198    1.6179 C   0  0  0  0  0  0  0  0  0  0  0  0
    9.0469   -2.1488    1.0038 C   0  0  0  0  0  0  0  0  0  0  0  0
    8.2294   -1.1038    1.3933 C   0  0  0  0  0  0  0  0  0  0  0  0
    6.7513    1.0429    2.7460 O   0  0  0  0  0  0  0  0  0  0  0  0
    5.2541    1.3714   -1.4137 O   0  0  0  0  0  0  0  0  0  0  0  0
    5.3311    2.3853   -0.5106 C   0  0  0  0  0  0  0  0  0  0  0  0
    0.5494   -2.5837   -3.3636 O   0  0  0  0  0  0  0  0  0  0  0  0
    1.1043   -3.5278   -4.1816 C   0  0  0  0  0  0  0  0  0  0  0  0
   -2.8174   -1.0324   -3.8087 N   0  0  0  0  0  0  0  0  0  0  0  0
   -3.3576   -2.0147   -4.8262 C   0  0  0  0  0  0  0  0  0  0  0  0
   -3.5580    0.0730   -3.6177 C   0  0  0  0  0  0  0  0  0  0  0  0
   -4.6980    0.1360   -4.3152 O   0  0  0  0  0  0  0  0  0  0  0  0
   -3.4579    1.2966   -2.7849 C   0  0  1  0  0  0  0  0  0  0  0  0
   -2.9918    2.5039   -3.5030 C   0  0  0  0  0  0  0  0  0  0  0  0
   -3.8383    2.9894   -4.6549 C   0  0  0  0  0  0  0  0  0  0  0  0
   -1.5834    2.3898   -4.0718 C   0  0  0  0  0  0  0  0  0  0  0  0
   -4.8381    1.6312   -2.3282 N   0  0  0  0  0  0  0  0  0  0  0  0
   -5.1013    1.2910   -0.9983 C   0  0  0  0  0  0  0  0  0  0  0  0
   -4.1567    0.7698   -0.3288 O   0  0  0  0  0  0  0  0  0  0  0  0
   -6.3576    1.4302   -0.2074 C   0  0  1  0  0  0  0  0  0  0  0  0
   -7.6493    1.5222   -0.8077 C   0  0  0  0  0  0  0  0  0  0  0  0
   -8.7296    1.5648    0.3161 C   0  0  0  0  0  0  0  0  0  0  0  0
   -7.9362    2.7685   -1.6193 C   0  0  0  0  0  0  0  0  0  0  0  0
   -6.2671    0.4017    0.8478 N   0  0  0  0  0  0  0  0  0  0  0  0
   -5.8762    0.7522    2.2095 C   0  0  0  0  0  0  0  0  0  0  0  0
   -6.5844   -0.9821    0.5354 C   0  0  0  0  0  0  0  0  0  0  0  0
   -7.2181   -1.2891   -0.5119 O   0  0  0  0  0  0  0  0  0  0  0  0
   -6.1752   -1.9098    1.3707 O   0  0  0  0  0  0  0  0  0  0  0  0
   -6.2966   -3.2870    1.4445 C   0  0  0  0  0  0  0  0  0  0  0  0
   -5.2455   -3.6913    2.4896 C   0  0  0  0  0  0  0  0  0  0  0  0
   -4.0358   -4.0163    1.8619 C   0  0  0  0  0  0  0  0  0  0  0  0
   -2.9180   -4.1702    2.6117 C   0  0  0  0  0  0  0  0  0  0  0  0
   -3.0695   -3.9872    3.9930 C   0  0  0  0  0  0  0  0  0  0  0  0
   -4.2373   -3.6834    4.6058 C   0  0  0  0  0  0  0  0  0  0  0  0
   -5.3996   -3.5236    3.8248 C   0  0  0  0  0  0  0  0  0  0  0  0
   -1.7682   -3.9959    4.6617 N   0  0  0  0  0  0  0  0  0  0  0  0
   -1.2385   -2.6777    4.7502 C   0  0  0  0  0  0  0  0  0  0  0  0
   -2.0315   -1.7731    4.2653 O   0  0  0  0  0  0  0  0  0  0  0  0
    0.0237   -2.2365    5.2822 C   0  0  1  0  0  0  0  0  0  0  0  0
    1.1920   -2.5048    4.3377 C   0  0  0  0  0  0  0  0  0  0  0  0
    1.3358   -3.9791    4.0300 C   0  0  0  0  0  0  0  0  0  0  0  0
    2.5276   -4.1325    3.0720 C   0  0  0  0  0  0  0  0  0  0  0  0
    2.7555   -5.5023    2.6797 N   0  0  0  0  0  0  0  0  0  0  0  0
    3.0506   -6.5485    3.5992 C   0  0  0  0  0  0  0  0  0  0  0  0
    3.1343   -6.3449    4.8310 O   0  0  0  0  0  0  0  0  0  0  0  0
    3.2468   -7.8575    3.0367 N   0  0  0  0  0  0  0  0  0  0  0  0
   -0.0099   -0.7773    5.4818 N   0  0  0  0  0  0  0  0  0  0  0  0
   -0.0264    0.1698    4.4554 C   0  0  0  0  0  0  0  0  0  0  0  0
   -0.0258   -0.1310    3.2084 O   0  0  0  0  0  0  0  0  0  0  0  0
   -0.0482    1.5997    4.7632 C   0  0  1  0  0  0  0  0  0  0  0  0
    1.2983    2.1480    5.2335 C   0  0  0  0  0  0  0  0  0  0  0  0
    1.7732    1.2634    6.3937 C   0  0  0  0  0  0  0  0  0  0  0  0
    0.9458    3.4628    6.0192 C   0  0  0  0  0  0  0  0  0  0  0  0
   -0.3688    2.1842    3.4329 N   0  0  0  0  0  0  0  0  0  0  0  0
   -0.2549    3.5021    3.0289 C   0  0  0  0  0  0  0  0  0  0  0  0
    0.1524    4.4584    3.6724 O   0  0  0  0  0  0  0  0  0  0  0  0
   -0.6761    3.8755    1.5857 C   0  0  0  0  0  0  0  0  0  0  0  0
   -0.3535    5.3119    1.3480 C   0  0  0  0  0  0  0  0  0  0  0  0
   -0.7725    5.7521   -0.0128 C   0  0  0  0  0  0  0  0  0  0  0  0
   -0.0602    4.9498   -1.0664 C   0  0  0  0  0  0  0  0  0  0  0  0
   -0.4222    5.3649   -2.4859 C   0  0  0  0  0  0  0  0  0  0  0  0
   -0.0727    6.7469   -2.6701 N   0  0  0  0  0  0  0  0  0  0  0  0
    1.1825    7.2795   -3.1165 C   0  0  0  0  0  0  0  0  0  0  0  0
    2.1945    6.5757   -3.4016 O   0  0  0  0  0  0  0  0  0  0  0  0
    1.0134    8.7208   -3.1524 C   0  0  0  0  0  0  0  0  0  0  0  0
   -0.2160    9.0406   -2.7660 C   0  0  0  0  0  0  0  0  0  0  0  0
   -0.9814    7.8340   -2.4386 C   0  0  0  0  0  0  0  0  0  0  0  0
   -2.1606    7.8194   -2.0518 O   0  0  0  0  0  0  0  0  0  0  0  0
   -0.9032   -5.3497   -3.1480 H   0  0  0  0  0  0  0  0  0  0  0  0
   -2.5740   -5.7685   -3.4240 H   0  0  0  0  0  0  0  0  0  0  0  0
   -1.8156   -4.5474   -4.4372 H   0  0  0  0  0  0  0  0  0  0  0  0
   -2.1846   -4.5088   -1.3814 H   0  0  0  0  0  0  0  0  0  0  0  0
   -3.4518   -3.8910   -2.3898 H   0  0  0  0  0  0  0  0  0  0  0  0
   -0.7794   -2.6891   -1.7191 H   0  0  0  0  0  0  0  0  0  0  0  0
   -2.0861   -0.9627   -0.6791 H   0  0  0  0  0  0  0  0  0  0  0  0
   -2.4247   -2.5829   -0.0767 H   0  0  0  0  0  0  0  0  0  0  0  0
   -3.6119   -1.7215   -1.1986 H   0  0  0  0  0  0  0  0  0  0  0  0
   -1.2855   -0.6358   -2.5718 H   0  0  0  0  0  0  0  0  0  0  0  0
   -0.6579   -2.4256   -5.0067 H   0  0  0  0  0  0  0  0  0  0  0  0
    1.1698   -1.1210   -5.2495 H   0  0  0  0  0  0  0  0  0  0  0  0
   -0.0942    0.0718   -4.9904 H   0  0  0  0  0  0  0  0  0  0  0  0
    3.4662    0.4754   -5.3653 H   0  0  0  0  0  0  0  0  0  0  0  0
    1.7239    1.0351   -5.5581 H   0  0  0  0  0  0  0  0  0  0  0  0
    4.0640    2.6933   -5.3204 H   0  0  0  0  0  0  0  0  0  0  0  0
    2.3822    3.2430   -4.8949 H   0  0  0  0  0  0  0  0  0  0  0  0
    2.7453    2.9072   -2.6722 H   0  0  0  0  0  0  0  0  0  0  0  0
    4.5689    2.8687   -3.0869 H   0  0  0  0  0  0  0  0  0  0  0  0
    4.4514    0.6110   -3.6441 H   0  0  0  0  0  0  0  0  0  0  0  0
    3.2759    1.1972   -0.8231 H   0  0  0  0  0  0  0  0  0  0  0  0
    3.3056   -1.3227   -1.3926 H   0  0  0  0  0  0  0  0  0  0  0  0
    6.2536   -0.8114   -1.9145 H   0  0  0  0  0  0  0  0  0  0  0  0
    4.9639   -1.3030   -3.1683 H   0  0  0  0  0  0  0  0  0  0  0  0
    5.3701   -2.3423   -1.8094 H   0  0  0  0  0  0  0  0  0  0  0  0
    3.7974    0.6049    1.2259 H   0  0  0  0  0  0  0  0  0  0  0  0
    4.8464   -1.6908    2.7330 H   0  0  0  0  0  0  0  0  0  0  0  0
    3.1401    0.4569    3.4339 H   0  0  0  0  0  0  0  0  0  0  0  0
    4.7015    0.8952    4.2033 H   0  0  0  0  0  0  0  0  0  0  0  0
    3.9326   -0.6302    4.6203 H   0  0  0  0  0  0  0  0  0  0  0  0
    6.4298   -0.3986    4.0476 H   0  0  0  0  0  0  0  0  0  0  0  0
    6.4398   -2.7152    3.7988 H   0  0  0  0  0  0  0  0  0  0  0  0
    7.9164   -4.5658    3.0739 H   0  0  0  0  0  0  0  0  0  0  0  0
    9.5860   -4.2166    1.2823 H   0  0  0  0  0  0  0  0  0  0  0  0
    9.7994   -2.0177    0.2329 H   0  0  0  0  0  0  0  0  0  0  0  0
    8.3153   -0.1474    0.9171 H   0  0  0  0  0  0  0  0  0  0  0  0
    6.7284    1.5867    3.5865 H   0  0  0  0  0  0  0  0  0  0  0  0
    4.6051    3.2350   -0.7251 H   0  0  0  0  0  0  0  0  0  0  0  0
    6.3253    2.9173   -0.7619 H   0  0  0  0  0  0  0  0  0  0  0  0
    5.4375    2.1503    0.5372 H   0  0  0  0  0  0  0  0  0  0  0  0
    1.8498   -4.1067   -3.5729 H   0  0  0  0  0  0  0  0  0  0  0  0
    1.7478   -2.9930   -4.9868 H   0  0  0  0  0  0  0  0  0  0  0  0
    0.4881   -4.2040   -4.7266 H   0  0  0  0  0  0  0  0  0  0  0  0
   -4.0531   -2.7092   -4.3543 H   0  0  0  0  0  0  0  0  0  0  0  0
   -3.9154   -1.4104   -5.6103 H   0  0  0  0  0  0  0  0  0  0  0  0
   -2.5860   -2.5366   -5.3604 H   0  0  0  0  0  0  0  0  0  0  0  0
   -2.8588    1.0955   -1.9250 H   0  0  0  0  0  0  0  0  0  0  0  0
   -2.9880    3.3416   -2.7786 H   0  0  0  0  0  0  0  0  0  0  0  0
   -3.4222    4.0271   -4.8806 H   0  0  0  0  0  0  0  0  0  0  0  0
   -3.6853    2.4529   -5.6050 H   0  0  0  0  0  0  0  0  0  0  0  0
   -4.8908    3.1917   -4.3844 H   0  0  0  0  0  0  0  0  0  0  0  0
   -1.6525    1.7796   -5.0207 H   0  0  0  0  0  0  0  0  0  0  0  0
   -0.8235    2.0764   -3.3688 H   0  0  0  0  0  0  0  0  0  0  0  0
   -1.3142    3.4069   -4.4442 H   0  0  0  0  0  0  0  0  0  0  0  0
   -5.5490    2.0586   -2.8987 H   0  0  0  0  0  0  0  0  0  0  0  0
   -6.1321    2.4329    0.3315 H   0  0  0  0  0  0  0  0  0  0  0  0
   -7.9383    0.6750   -1.4495 H   0  0  0  0  0  0  0  0  0  0  0  0
   -8.2740    1.9020    1.2550 H   0  0  0  0  0  0  0  0  0  0  0  0
   -9.5563    2.2499    0.0555 H   0  0  0  0  0  0  0  0  0  0  0  0
   -9.1571    0.5498    0.4282 H   0  0  0  0  0  0  0  0  0  0  0  0
   -8.5666    2.5487   -2.5004 H   0  0  0  0  0  0  0  0  0  0  0  0
   -8.6052    3.4128   -0.9665 H   0  0  0  0  0  0  0  0  0  0  0  0
   -7.0748    3.4220   -1.7949 H   0  0  0  0  0  0  0  0  0  0  0  0
   -6.1489    1.8053    2.4044 H   0  0  0  0  0  0  0  0  0  0  0  0
   -6.3629    0.1134    2.9691 H   0  0  0  0  0  0  0  0  0  0  0  0
   -4.7951    0.6334    2.3692 H   0  0  0  0  0  0  0  0  0  0  0  0
   -6.1510   -3.8589    0.5296 H   0  0  0  0  0  0  0  0  0  0  0  0
   -7.2726   -3.5509    1.8762 H   0  0  0  0  0  0  0  0  0  0  0  0
   -3.9791   -4.1570    0.7895 H   0  0  0  0  0  0  0  0  0  0  0  0
   -1.9785   -4.4206    2.1574 H   0  0  0  0  0  0  0  0  0  0  0  0
   -4.2533   -3.5733    5.6746 H   0  0  0  0  0  0  0  0  0  0  0  0
   -6.3493   -3.2758    4.2437 H   0  0  0  0  0  0  0  0  0  0  0  0
   -1.2863   -4.7929    5.0301 H   0  0  0  0  0  0  0  0  0  0  0  0
    0.2818   -2.6981    6.2337 H   0  0  0  0  0  0  0  0  0  0  0  0
    1.1660   -1.9916    3.3913 H   0  0  0  0  0  0  0  0  0  0  0  0
    2.1204   -2.1807    4.8530 H   0  0  0  0  0  0  0  0  0  0  0  0
    1.5531   -4.4875    4.9818 H   0  0  0  0  0  0  0  0  0  0  0  0
    0.4646   -4.3804    3.4931 H   0  0  0  0  0  0  0  0  0  0  0  0
    2.4031   -3.4671    2.1953 H   0  0  0  0  0  0  0  0  0  0  0  0
    3.4526   -3.7818    3.5852 H   0  0  0  0  0  0  0  0  0  0  0  0
    2.6966   -5.7273    1.6377 H   0  0  0  0  0  0  0  0  0  0  0  0
    2.4758   -8.5021    2.8399 H   0  0  0  0  0  0  0  0  0  0  0  0
    4.2301   -8.1168    2.8448 H   0  0  0  0  0  0  0  0  0  0  0  0
   -0.0556   -0.4773    6.4779 H   0  0  0  0  0  0  0  0  0  0  0  0
   -0.7690    1.9455    5.4551 H   0  0  0  0  0  0  0  0  0  0  0  0
    2.0014    2.2954    4.4634 H   0  0  0  0  0  0  0  0  0  0  0  0
    2.7386    1.7383    6.8187 H   0  0  0  0  0  0  0  0  0  0  0  0
    1.0984    1.3144    7.2558 H   0  0  0  0  0  0  0  0  0  0  0  0
    2.1090    0.2978    6.0419 H   0  0  0  0  0  0  0  0  0  0  0  0
    1.6438    4.2696    5.7928 H   0  0  0  0  0  0  0  0  0  0  0  0
   -0.1299    3.6586    6.0077 H   0  0  0  0  0  0  0  0  0  0  0  0
    1.1412    3.2771    7.1413 H   0  0  0  0  0  0  0  0  0  0  0  0
   -0.7708    1.5171    2.6707 H   0  0  0  0  0  0  0  0  0  0  0  0
   -1.7686    3.7374    1.5580 H   0  0  0  0  0  0  0  0  0  0  0  0
   -0.1507    3.2225    0.8958 H   0  0  0  0  0  0  0  0  0  0  0  0
    0.7602    5.4275    1.4816 H   0  0  0  0  0  0  0  0  0  0  0  0
   -0.8623    5.9043    2.1511 H   0  0  0  0  0  0  0  0  0  0  0  0
   -0.5031    6.8379   -0.1506 H   0  0  0  0  0  0  0  0  0  0  0  0
   -1.8886    5.7075   -0.1425 H   0  0  0  0  0  0  0  0  0  0  0  0
    1.0526    5.0864   -0.9951 H   0  0  0  0  0  0  0  0  0  0  0  0
   -0.2491    3.8425   -0.9434 H   0  0  0  0  0  0  0  0  0  0  0  0
    0.2093    4.7206   -3.1599 H   0  0  0  0  0  0  0  0  0  0  0  0
   -1.5126    5.2164   -2.6591 H   0  0  0  0  0  0  0  0  0  0  0  0
    1.7438    9.4321   -3.4432 H   0  0  0  0  0  0  0  0  0  0  0  0
   -0.6375   10.0290   -2.6827 H   0  0  0  0  0  0  0  0  0  0  0  0
  1  2  1  0
  2  3  1  0
  3  4  1  0
  3  5  1  0
  5  6  1  0
  6  7  1  0
  7  8  1  0
  8  9  2  0
  8 10  1  0
 10 11  1  0
 11 12  1  0
 12 13  1  0
 13 14  1  0
 14 15  1  0
 15 16  1  0
 16 17  1  0
 16 18  1  0
 18 19  2  0
 18 20  1  0
 20 21  1  0
 21 22  1  0
 21 23  1  0
 23 24  1  0
 24 25  2  0
 25 26  1  0
 26 27  2  0
 27 28  1  0
 28 29  2  0
 23 30  1  0
 15 31  1  0
 31 32  1  0
  6 33  1  0
 33 34  1  0
  5 35  1  0
 35 36  1  0
 35 37  1  0
 37 38  2  0
 37 39  1  0
 39 40  1  0
 40 41  1  0
 40 42  1  0
 39 43  1  0
 43 44  1  0
 44 45  2  0
 44 46  1  0
 46 47  1  0
 47 48  1  0
 47 49  1  0
 46 50  1  0
 50 51  1  0
 50 52  1  0
 52 53  2  0
 52 54  1  0
 54 55  1  0
 55 56  1  0
 56 57  1  0
 57 58  2  0
 58 59  1  0
 59 60  2  0
 60 61  1  0
 59 62  1  0
 62 63  1  0
 63 64  2  0
 63 65  1  0
 65 66  1  0
 66 67  1  0
 67 68  1  0
 68 69  1  0
 69 70  1  0
 70 71  2  0
 70 72  1  0
 65 73  1  0
 73 74  1  0
 74 75  2  0
 74 76  1  0
 76 77  1  0
 77 78  1  0
 77 79  1  0
 76 80  1  0
 80 81  1  0
 81 82  2  0
 81 83  1  0
 83 84  1  0
 84 85  1  0
 85 86  1  0
 86 87  1  0
 87 88  1  0
 88 89  1  0
 89 90  2  0
 89 91  1  0
 91 92  2  0
 92 93  1  0
 93 94  2  0
 14 10  1  0
 29 24  1  0
 61 56  2  0
 93 88  1  0
  1 95  1  0
  1 96  1  0
  1 97  1  0
  2 98  1  0
  2 99  1  0
  3100  1  1
  4101  1  0
  4102  1  0
  4103  1  0
  5104  1  1
  6105  1  6
  7106  1  0
  7107  1  0
 11108  1  0
 11109  1  0
 12110  1  0
 12111  1  0
 13112  1  0
 13113  1  0
 14114  1  6
 15115  1  1
 16116  1  6
 17117  1  0
 17118  1  0
 17119  1  0
 20120  1  0
 21121  1  1
 22122  1  0
 22123  1  0
 22124  1  0
 23125  1  1
 25126  1  0
 26127  1  0
 27128  1  0
 28129  1  0
 29130  1  0
 30131  1  0
 32132  1  0
 32133  1  0
 32134  1  0
 34135  1  0
 34136  1  0
 34137  1  0
 36138  1  0
 36139  1  0
 36140  1  0
 39141  1  1
 40142  1  0
 41143  1  0
 41144  1  0
 41145  1  0
 42146  1  0
 42147  1  0
 42148  1  0
 43149  1  0
 46150  1  1
 47151  1  0
 48152  1  0
 48153  1  0
 48154  1  0
 49155  1  0
 49156  1  0
 49157  1  0
 51158  1  0
 51159  1  0
 51160  1  0
 55161  1  0
 55162  1  0
 57163  1  0
 58164  1  0
 60165  1  0
 61166  1  0
 62167  1  0
 65168  1  1
 66169  1  0
 66170  1  0
 67171  1  0
 67172  1  0
 68173  1  0
 68174  1  0
 69175  1  0
 72176  1  0
 72177  1  0
 73178  1  0
 76179  1  1
 77180  1  0
 78181  1  0
 78182  1  0
 78183  1  0
 79184  1  0
 79185  1  0
 79186  1  0
 80187  1  0
 83188  1  0
 83189  1  0
 84190  1  0
 84191  1  0
 85192  1  0
 85193  1  0
 86194  1  0
 86195  1  0
 87196  1  0
 87197  1  0
 91198  1  0
 92199  1  0
M  END
$$$$

     RDKit          3D

199202  0  0  0  0  0  0  0  0999 V2000
   -7.1529    0.7478   -2.4095 C   0  0  0  0  0  0  0  0  0  0  0  0
   -6.3100    0.3275   -1.2253 C   0  0  0  0  0  0  0  0  0  0  0  0
   -5.2229    1.3357   -0.9668 C   0  0  2  0  0  0  0  0  0  0  0  0
   -4.3606    1.4144   -2.1999 C   0  0  0  0  0  0  0  0  0  0  0  0
   -4.2831    0.7688    0.1725 C   0  0  1  0  0  0  0  0  0  0  0  0
   -3.2232    1.7882    0.3853 C   0  0  1  0  0  0  0  0  0  0  0  0
   -3.6362    3.1303    0.8311 C   0  0  0  0  0  0  0  0  0  0  0  0
   -2.5612    4.1530    0.9432 C   0  0  0  0  0  0  0  0  0  0  0  0
   -1.9997    4.4605   -0.1699 O   0  0  0  0  0  0  0  0  0  0  0  0
   -2.1676    4.7695    2.1545 N   0  0  0  0  0  0  0  0  0  0  0  0
   -2.7415    4.3321    3.4468 C   0  0  0  0  0  0  0  0  0  0  0  0
   -1.9031    5.0236    4.5122 C   0  0  0  0  0  0  0  0  0  0  0  0
   -0.6329    5.3856    3.7256 C   0  0  0  0  0  0  0  0  0  0  0  0
   -1.3122    5.8727    2.4640 C   0  0  1  0  0  0  0  0  0  0  0  0
   -0.4124    6.4281    1.4466 C   0  0  1  0  0  0  0  0  0  0  0  0
    0.9461    5.8655    1.2772 C   0  0  1  0  0  0  0  0  0  0  0  0
    1.0465    4.4273    0.9160 C   0  0  0  0  0  0  0  0  0  0  0  0
    1.6417    6.6644    0.2188 C   0  0  0  0  0  0  0  0  0  0  0  0
    2.6440    7.4041    0.4979 O   0  0  0  0  0  0  0  0  0  0  0  0
    1.2510    6.6632   -1.1455 N   0  0  0  0  0  0  0  0  0  0  0  0
    1.9220    7.4540   -2.1647 C   0  0  2  0  0  0  0  0  0  0  0  0
    1.0101    8.2336   -3.0464 C   0  0  0  0  0  0  0  0  0  0  0  0
    2.7915    6.5460   -3.0159 C   0  0  1  0  0  0  0  0  0  0  0  0
    3.9958    6.0600   -2.2878 C   0  0  0  0  0  0  0  0  0  0  0  0
    5.2252    6.7150   -2.4180 C   0  0  0  0  0  0  0  0  0  0  0  0
    6.3512    6.2822   -1.7432 C   0  0  0  0  0  0  0  0  0  0  0  0
    6.3052    5.1935   -0.9213 C   0  0  0  0  0  0  0  0  0  0  0  0
    5.1184    4.5268   -0.7687 C   0  0  0  0  0  0  0  0  0  0  0  0
    3.9839    4.9684   -1.4522 C   0  0  0  0  0  0  0  0  0  0  0  0
    2.1015    5.5484   -3.6557 O   0  0  0  0  0  0  0  0  0  0  0  0
   -1.0636    6.8448    0.2915 O   0  0  0  0  0  0  0  0  0  0  0  0
   -1.1720    8.2296    0.1931 C   0  0  0  0  0  0  0  0  0  0  0  0
   -2.2039    1.3305    1.2395 O   0  0  0  0  0  0  0  0  0  0  0  0
   -1.0175    1.1875    0.4955 C   0  0  0  0  0  0  0  0  0  0  0  0
   -5.0812    0.2444    1.2046 N   0  0  0  0  0  0  0  0  0  0  0  0
   -5.8099    1.2935    2.0070 C   0  0  0  0  0  0  0  0  0  0  0  0
   -5.3644   -1.0639    1.6156 C   0  0  0  0  0  0  0  0  0  0  0  0
   -6.2537   -1.0719    2.6321 O   0  0  0  0  0  0  0  0  0  0  0  0
   -4.9904   -2.4013    1.2614 C   0  0  1  0  0  0  0  0  0  0  0  0
   -6.1734   -3.1089    0.5502 C   0  0  0  0  0  0  0  0  0  0  0  0
   -5.8490   -4.5131    0.1356 C   0  0  0  0  0  0  0  0  0  0  0  0
   -7.3352   -3.2168    1.5495 C   0  0  0  0  0  0  0  0  0  0  0  0
   -3.8072   -2.6818    0.5194 N   0  0  0  0  0  0  0  0  0  0  0  0
   -3.0193   -3.8810    0.8825 C   0  0  0  0  0  0  0  0  0  0  0  0
   -3.4609   -4.6073    1.8059 O   0  0  0  0  0  0  0  0  0  0  0  0
   -1.8113   -4.1143    0.1470 C   0  0  1  0  0  0  0  0  0  0  0  0
   -0.6578   -3.5934    1.0616 C   0  0  0  0  0  0  0  0  0  0  0  0
   -0.9823   -2.1183    1.2530 C   0  0  0  0  0  0  0  0  0  0  0  0
   -0.6048   -4.2650    2.3826 C   0  0  0  0  0  0  0  0  0  0  0  0
   -1.3698   -5.4288   -0.2239 N   0  0  0  0  0  0  0  0  0  0  0  0
   -1.4155   -6.6077    0.5979 C   0  0  0  0  0  0  0  0  0  0  0  0
   -0.8520   -5.4686   -1.5871 C   0  0  0  0  0  0  0  0  0  0  0  0
   -0.9885   -4.3312   -2.1585 O   0  0  0  0  0  0  0  0  0  0  0  0
   -0.2884   -6.4967   -2.2292 O   0  0  0  0  0  0  0  0  0  0  0  0
    0.2182   -6.4192   -3.5898 C   0  0  0  0  0  0  0  0  0  0  0  0
    1.2462   -5.3215   -3.6369 C   0  0  0  0  0  0  0  0  0  0  0  0
    2.5453   -5.4921   -3.2243 C   0  0  0  0  0  0  0  0  0  0  0  0
    3.4814   -4.4633   -3.1874 C   0  0  0  0  0  0  0  0  0  0  0  0
    3.0958   -3.2147   -3.5793 C   0  0  0  0  0  0  0  0  0  0  0  0
    1.7850   -3.0028   -4.0111 C   0  0  0  0  0  0  0  0  0  0  0  0
    0.8899   -4.0396   -4.0370 C   0  0  0  0  0  0  0  0  0  0  0  0
    3.9134   -2.0385   -3.5443 N   0  0  0  0  0  0  0  0  0  0  0  0
    4.0604   -1.4822   -2.2299 C   0  0  0  0  0  0  0  0  0  0  0  0
    3.5077   -2.0811   -1.2474 O   0  0  0  0  0  0  0  0  0  0  0  0
    4.8437   -0.2183   -1.9657 C   0  0  1  0  0  0  0  0  0  0  0  0
    3.7318    0.8565   -1.9681 C   0  0  0  0  0  0  0  0  0  0  0  0
    2.9805    0.8808   -3.2833 C   0  0  0  0  0  0  0  0  0  0  0  0
    1.8677    1.9107   -3.1699 C   0  0  0  0  0  0  0  0  0  0  0  0
    1.0549    2.0287   -4.3338 N   0  0  0  0  0  0  0  0  0  0  0  0
   -0.0269    2.9524   -4.3039 C   0  0  0  0  0  0  0  0  0  0  0  0
   -0.2781    3.6702   -3.2741 O   0  0  0  0  0  0  0  0  0  0  0  0
   -0.8821    3.1302   -5.4041 N   0  0  0  0  0  0  0  0  0  0  0  0
    5.1606   -0.3082   -0.5166 N   0  0  0  0  0  0  0  0  0  0  0  0
    6.4392   -0.1882   -0.0012 C   0  0  0  0  0  0  0  0  0  0  0  0
    7.4867    0.0253   -0.7178 O   0  0  0  0  0  0  0  0  0  0  0  0
    6.7718   -0.3013    1.4801 C   0  0  1  0  0  0  0  0  0  0  0  0
    7.4919    0.8623    2.0201 C   0  0  0  0  0  0  0  0  0  0  0  0
    8.8224    1.1554    1.3480 C   0  0  0  0  0  0  0  0  0  0  0  0
    6.6204    2.1148    2.0944 C   0  0  0  0  0  0  0  0  0  0  0  0
    5.5365   -0.4933    2.2140 N   0  0  0  0  0  0  0  0  0  0  0  0
    4.8147   -1.7681    2.1416 C   0  0  0  0  0  0  0  0  0  0  0  0
    5.3562   -2.5981    1.4014 O   0  0  0  0  0  0  0  0  0  0  0  0
    3.6088   -1.8382    2.9368 C   0  0  0  0  0  0  0  0  0  0  0  0
    2.8786   -3.1063    2.9431 C   0  0  0  0  0  0  0  0  0  0  0  0
    3.5099   -4.2695    3.5986 C   0  0  0  0  0  0  0  0  0  0  0  0
    4.7968   -4.8047    3.1533 C   0  0  0  0  0  0  0  0  0  0  0  0
    5.2399   -6.0421    3.9574 C   0  0  0  0  0  0  0  0  0  0  0  0
    4.2675   -7.0894    3.8677 N   0  0  0  0  0  0  0  0  0  0  0  0
    3.1750   -7.3312    4.7665 C   0  0  0  0  0  0  0  0  0  0  0  0
    2.9645   -6.5897    5.7837 O   0  0  0  0  0  0  0  0  0  0  0  0
    2.4228   -8.4921    4.3190 C   0  0  0  0  0  0  0  0  0  0  0  0
    2.9845   -8.9542    3.2275 C   0  0  0  0  0  0  0  0  0  0  0  0
    4.1352   -8.1323    2.8886 C   0  0  0  0  0  0  0  0  0  0  0  0
    4.8899   -8.3097    1.8971 O   0  0  0  0  0  0  0  0  0  0  0  0
   -7.1174    1.8378   -2.5976 H   0  0  0  0  0  0  0  0  0  0  0  0
   -8.2315    0.5276   -2.2064 H   0  0  0  0  0  0  0  0  0  0  0  0
   -6.8098    0.2638   -3.3476 H   0  0  0  0  0  0  0  0  0  0  0  0
   -6.8926    0.1245   -0.3217 H   0  0  0  0  0  0  0  0  0  0  0  0
   -5.8663   -0.6681   -1.5391 H   0  0  0  0  0  0  0  0  0  0  0  0
   -5.6459    2.2843   -0.6502 H   0  0  0  0  0  0  0  0  0  0  0  0
   -3.5636    0.6297   -2.1434 H   0  0  0  0  0  0  0  0  0  0  0  0
   -3.8397    2.3756   -2.3183 H   0  0  0  0  0  0  0  0  0  0  0  0
   -4.9627    1.1403   -3.0932 H   0  0  0  0  0  0  0  0  0  0  0  0
   -3.7924   -0.0601   -0.3899 H   0  0  0  0  0  0  0  0  0  0  0  0
   -2.7037    1.8939   -0.6133 H   0  0  0  0  0  0  0  0  0  0  0  0
   -3.9632    3.0104    1.9254 H   0  0  0  0  0  0  0  0  0  0  0  0
   -4.4401    3.6230    0.2410 H   0  0  0  0  0  0  0  0  0  0  0  0
   -3.7927    4.6758    3.4303 H   0  0  0  0  0  0  0  0  0  0  0  0
   -2.7125    3.2315    3.5459 H   0  0  0  0  0  0  0  0  0  0  0  0
   -2.3901    5.9523    4.8800 H   0  0  0  0  0  0  0  0  0  0  0  0
   -1.6880    4.2737    5.2912 H   0  0  0  0  0  0  0  0  0  0  0  0
   -0.1212    4.4162    3.6100 H   0  0  0  0  0  0  0  0  0  0  0  0
   -0.0429    6.1619    4.2250 H   0  0  0  0  0  0  0  0  0  0  0  0
   -2.0280    6.6819    2.8568 H   0  0  0  0  0  0  0  0  0  0  0  0
   -0.1579    7.4838    1.9184 H   0  0  0  0  0  0  0  0  0  0  0  0
    1.5073    6.0842    2.2218 H   0  0  0  0  0  0  0  0  0  0  0  0
    0.2832    3.7860    1.3784 H   0  0  0  0  0  0  0  0  0  0  0  0
    0.9576    4.2496   -0.1743 H   0  0  0  0  0  0  0  0  0  0  0  0
    2.0865    4.0691    1.1846 H   0  0  0  0  0  0  0  0  0  0  0  0
    0.4325    6.0610   -1.4474 H   0  0  0  0  0  0  0  0  0  0  0  0
    2.6579    8.1471   -1.6605 H   0  0  0  0  0  0  0  0  0  0  0  0
    0.0398    7.7047   -3.1512 H   0  0  0  0  0  0  0  0  0  0  0  0
    0.9206    9.2863   -2.7331 H   0  0  0  0  0  0  0  0  0  0  0  0
    1.4628    8.2524   -4.0771 H   0  0  0  0  0  0  0  0  0  0  0  0
    3.1828    7.2087   -3.8509 H   0  0  0  0  0  0  0  0  0  0  0  0
    5.3016    7.5922   -3.0721 H   0  0  0  0  0  0  0  0  0  0  0  0
    7.3108    6.7877   -1.8353 H   0  0  0  0  0  0  0  0  0  0  0  0
    7.1582    4.8185   -0.3725 H   0  0  0  0  0  0  0  0  0  0  0  0
    5.0125    3.6468   -0.1213 H   0  0  0  0  0  0  0  0  0  0  0  0
    3.0508    4.4248   -1.3187 H   0  0  0  0  0  0  0  0  0  0  0  0
    1.2538    5.9629   -4.0071 H   0  0  0  0  0  0  0  0  0  0  0  0
   -0.1480    8.6477    0.1934 H   0  0  0  0  0  0  0  0  0  0  0  0
   -1.6963    8.6711    1.0692 H   0  0  0  0  0  0  0  0  0  0  0  0
   -1.6319    8.5397   -0.7695 H   0  0  0  0  0  0  0  0  0  0  0  0
   -0.6682    2.1213    0.0337 H   0  0  0  0  0  0  0  0  0  0  0  0
   -1.3155    0.5420   -0.3696 H   0  0  0  0  0  0  0  0  0  0  0  0
   -0.2309    0.6494    1.0448 H   0  0  0  0  0  0  0  0  0  0  0  0
   -6.0286    2.1759    1.4454 H   0  0  0  0  0  0  0  0  0  0  0  0
   -6.8184    0.8625    2.2978 H   0  0  0  0  0  0  0  0  0  0  0  0
   -5.3198    1.4881    2.9524 H   0  0  0  0  0  0  0  0  0  0  0  0
   -4.9272   -3.0350    2.2169 H   0  0  0  0  0  0  0  0  0  0  0  0
   -6.5424   -2.5601   -0.3053 H   0  0  0  0  0  0  0  0  0  0  0  0
   -4.9370   -4.6084   -0.4802 H   0  0  0  0  0  0  0  0  0  0  0  0
   -6.6782   -4.8317   -0.5817 H   0  0  0  0  0  0  0  0  0  0  0  0
   -5.9361   -5.2662    0.9507 H   0  0  0  0  0  0  0  0  0  0  0  0
   -6.8581   -3.4649    2.5205 H   0  0  0  0  0  0  0  0  0  0  0  0
   -7.9478   -2.3007    1.5619 H   0  0  0  0  0  0  0  0  0  0  0  0
   -7.9632   -4.0680    1.2510 H   0  0  0  0  0  0  0  0  0  0  0  0
   -3.4054   -2.1700   -0.2781 H   0  0  0  0  0  0  0  0  0  0  0  0
   -1.6889   -3.4408   -0.7405 H   0  0  0  0  0  0  0  0  0  0  0  0
    0.2928   -3.6542    0.5118 H   0  0  0  0  0  0  0  0  0  0  0  0
   -1.0814   -1.7296    0.2032 H   0  0  0  0  0  0  0  0  0  0  0  0
   -1.9333   -1.9725    1.7988 H   0  0  0  0  0  0  0  0  0  0  0  0
   -0.1519   -1.6522    1.8147 H   0  0  0  0  0  0  0  0  0  0  0  0
   -0.4843   -3.5031    3.2261 H   0  0  0  0  0  0  0  0  0  0  0  0
    0.3788   -4.8186    2.4403 H   0  0  0  0  0  0  0  0  0  0  0  0
   -1.3860   -4.9826    2.6200 H   0  0  0  0  0  0  0  0  0  0  0  0
   -1.3475   -7.4927   -0.0828 H   0  0  0  0  0  0  0  0  0  0  0  0
   -0.5077   -6.6636    1.2370 H   0  0  0  0  0  0  0  0  0  0  0  0
   -2.3000   -6.6811    1.2335 H   0  0  0  0  0  0  0  0  0  0  0  0
    0.6786   -7.3587   -3.8830 H   0  0  0  0  0  0  0  0  0  0  0  0
   -0.6195   -6.1120   -4.2209 H   0  0  0  0  0  0  0  0  0  0  0  0
    2.8667   -6.4832   -2.9091 H   0  0  0  0  0  0  0  0  0  0  0  0
    4.4974   -4.6065   -2.8609 H   0  0  0  0  0  0  0  0  0  0  0  0
    1.4456   -2.0378   -4.3309 H   0  0  0  0  0  0  0  0  0  0  0  0
   -0.1004   -3.8025   -4.4319 H   0  0  0  0  0  0  0  0  0  0  0  0
    4.3644   -1.6148   -4.3745 H   0  0  0  0  0  0  0  0  0  0  0  0
    5.6675   -0.0306   -2.6008 H   0  0  0  0  0  0  0  0  0  0  0  0
    3.0082    0.4960   -1.1896 H   0  0  0  0  0  0  0  0  0  0  0  0
    4.1326    1.8578   -1.7475 H   0  0  0  0  0  0  0  0  0  0  0  0
    3.6079    1.1886   -4.1380 H   0  0  0  0  0  0  0  0  0  0  0  0
    2.4838   -0.0885   -3.4667 H   0  0  0  0  0  0  0  0  0  0  0  0
    2.4054    2.9002   -3.0603 H   0  0  0  0  0  0  0  0  0  0  0  0
    1.2567    1.8191   -2.2721 H   0  0  0  0  0  0  0  0  0  0  0  0
    1.2657    1.4319   -5.1780 H   0  0  0  0  0  0  0  0  0  0  0  0
   -0.5954    3.5064   -6.3395 H   0  0  0  0  0  0  0  0  0  0  0  0
   -1.8886    2.8696   -5.2862 H   0  0  0  0  0  0  0  0  0  0  0  0
    4.3474   -0.4730    0.1090 H   0  0  0  0  0  0  0  0  0  0  0  0
    7.3704   -1.2380    1.5944 H   0  0  0  0  0  0  0  0  0  0  0  0
    7.7589    0.6313    3.0894 H   0  0  0  0  0  0  0  0  0  0  0  0
    9.4259    1.7658    2.0534 H   0  0  0  0  0  0  0  0  0  0  0  0
    9.3438    0.1928    1.2018 H   0  0  0  0  0  0  0  0  0  0  0  0
    8.7190    1.6646    0.3663 H   0  0  0  0  0  0  0  0  0  0  0  0
    6.4571    2.4582    3.1208 H   0  0  0  0  0  0  0  0  0  0  0  0
    7.1345    2.8919    1.5134 H   0  0  0  0  0  0  0  0  0  0  0  0
    5.6260    1.8845    1.6530 H   0  0  0  0  0  0  0  0  0  0  0  0
    5.1465    0.2837    2.8085 H   0  0  0  0  0  0  0  0  0  0  0  0
    3.9237   -1.6323    4.0182 H   0  0  0  0  0  0  0  0  0  0  0  0
    2.9231   -0.9456    2.7508 H   0  0  0  0  0  0  0  0  0  0  0  0
    2.6106   -3.3527    1.8521 H   0  0  0  0  0  0  0  0  0  0  0  0
    1.8725   -2.8936    3.4571 H   0  0  0  0  0  0  0  0  0  0  0  0
    2.7614   -5.1423    3.5111 H   0  0  0  0  0  0  0  0  0  0  0  0
    3.5415   -4.1302    4.7367 H   0  0  0  0  0  0  0  0  0  0  0  0
    4.8182   -5.0800    2.0901 H   0  0  0  0  0  0  0  0  0  0  0  0
    5.6166   -4.0743    3.3903 H   0  0  0  0  0  0  0  0  0  0  0  0
    5.4153   -5.6932    4.9874 H   0  0  0  0  0  0  0  0  0  0  0  0
    6.2133   -6.3948    3.5380 H   0  0  0  0  0  0  0  0  0  0  0  0
    1.5452   -8.8467    4.8695 H   0  0  0  0  0  0  0  0  0  0  0  0
    2.6419   -9.8312    2.6571 H   0  0  0  0  0  0  0  0  0  0  0  0
  1  2  1  0
  2  3  1  0
  3  4  1  0
  3  5  1  0
  5  6  1  0
  6  7  1  0
  7  8  1  0
  8  9  2  0
  8 10  1  0
 10 11  1  0
 11 12  1  0
 12 13  1  0
 13 14  1  0
 14 15  1  0
 15 16  1  0
 16 17  1  0
 16 18  1  0
 18 19  2  0
 18 20  1  0
 20 21  1  0
 21 22  1  0
 21 23  1  0
 23 24  1  0
 24 25  2  0
 25 26  1  0
 26 27  2  0
 27 28  1  0
 28 29  2  0
 23 30  1  0
 15 31  1  0
 31 32  1  0
  6 33  1  0
 33 34  1  0
  5 35  1  0
 35 36  1  0
 35 37  1  0
 37 38  2  0
 37 39  1  0
 39 40  1  0
 40 41  1  0
 40 42  1  0
 39 43  1  0
 43 44  1  0
 44 45  2  0
 44 46  1  0
 46 47  1  0
 47 48  1  0
 47 49  1  0
 46 50  1  0
 50 51  1  0
 50 52  1  0
 52 53  2  0
 52 54  1  0
 54 55  1  0
 55 56  1  0
 56 57  1  0
 57 58  2  0
 58 59  1  0
 59 60  2  0
 60 61  1  0
 59 62  1  0
 62 63  1  0
 63 64  2  0
 63 65  1  0
 65 66  1  0
 66 67  1  0
 67 68  1  0
 68 69  1  0
 69 70  1  0
 70 71  2  0
 70 72  1  0
 65 73  1  0
 73 74  1  0
 74 75  2  0
 74 76  1  0
 76 77  1  0
 77 78  1  0
 77 79  1  0
 76 80  1  0
 80 81  1  0
 81 82  2  0
 81 83  1  0
 83 84  1  0
 84 85  1  0
 85 86  1  0
 86 87  1  0
 87 88  1  0
 88 89  1  0
 89 90  2  0
 89 91  1  0
 91 92  2  0
 92 93  1  0
 93 94  2  0
 14 10  1  0
 29 24  1  0
 61 56  2  0
 93 88  1  0
  1 95  1  0
  1 96  1  0
  1 97  1  0
  2 98  1  0
  2 99  1  0
  3100  1  1
  4101  1  0
  4102  1  0
  4103  1  0
  5104  1  6
  6105  1  6
  7106  1  0
  7107  1  0
 11108  1  0
 11109  1  0
 12110  1  0
 12111  1  0
 13112  1  0
 13113  1  0
 14114  1  1
 15115  1  1
 16116  1  1
 17117  1  0
 17118  1  0
 17119  1  0
 20120  1  0
 21121  1  1
 22122  1  0
 22123  1  0
 22124  1  0
 23125  1  6
 25126  1  0
 26127  1  0
 27128  1  0
 28129  1  0
 29130  1  0
 30131  1  0
 32132  1  0
 32133  1  0
 32134  1  0
 34135  1  0
 34136  1  0
 34137  1  0
 36138  1  0
 36139  1  0
 36140  1  0
 39141  1  1
 40142  1  0
 41143  1  0
 41144  1  0
 41145  1  0
 42146  1  0
 42147  1  0
 42148  1  0
 43149  1  0
 46150  1  6
 47151  1  0
 48152  1  0
 48153  1  0
 48154  1  0
 49155  1  0
 49156  1  0
 49157  1  0
 51158  1  0
 51159  1  0
 51160  1  0
 55161  1  0
 55162  1  0
 57163  1  0
 58164  1  0
 60165  1  0
 61166  1  0
 62167  1  0
 65168  1  6
 66169  1  0
 66170  1  0
 67171  1  0
 67172  1  0
 68173  1  0
 68174  1  0
 69175  1  0
 72176  1  0
 72177  1  0
 73178  1  0
 76179  1  6
 77180  1  0
 78181  1  0
 78182  1  0
 78183  1  0
 79184  1  0
 79185  1  0
 79186  1  0
 80187  1  0
 83188  1  0
 83189  1  0
 84190  1  0
 84191  1  0
 85192  1  0
 85193  1  0
 86194  1  0
 86195  1  0
 87196  1  0
 87197  1  0
 91198  1  0
 92199  1  0
M  END
$$$$

     RDKit          3D

199202  0  0  0  0  0  0  0  0999 V2000
   -5.5421    5.5721    3.9085 C   0  0  0  0  0  0  0  0  0  0  0  0
   -4.9963    5.5803    2.5212 C   0  0  0  0  0  0  0  0  0  0  0  0
   -3.5919    4.9916    2.4747 C   0  0  2  0  0  0  0  0  0  0  0  0
   -3.1058    5.0887    1.0188 C   0  0  0  0  0  0  0  0  0  0  0  0
   -3.4846    3.5960    2.9764 C   0  0  1  0  0  0  0  0  0  0  0  0
   -4.2635    2.5490    2.2174 C   0  0  1  0  0  0  0  0  0  0  0  0
   -3.7162    1.9308    1.0175 C   0  0  0  0  0  0  0  0  0  0  0  0
   -4.7210    0.9847    0.4124 C   0  0  0  0  0  0  0  0  0  0  0  0
   -5.9172    0.9339    0.8730 O   0  0  0  0  0  0  0  0  0  0  0  0
   -4.4759    0.1223   -0.6558 N   0  0  0  0  0  0  0  0  0  0  0  0
   -5.6266   -0.6477   -1.2630 C   0  0  0  0  0  0  0  0  0  0  0  0
   -5.3948   -0.2551   -2.7475 C   0  0  0  0  0  0  0  0  0  0  0  0
   -3.9297    0.2588   -2.8096 C   0  0  0  0  0  0  0  0  0  0  0  0
   -3.4308   -0.3107   -1.5133 C   0  0  1  0  0  0  0  0  0  0  0  0
   -2.0248   -0.1164   -1.2294 C   0  0  1  0  0  0  0  0  0  0  0  0
   -1.3427   -1.1614   -0.3657 C   0  0  1  0  0  0  0  0  0  0  0  0
    0.0837   -0.6776   -0.1983 C   0  0  0  0  0  0  0  0  0  0  0  0
   -1.8941   -1.5203    0.9143 C   0  0  0  0  0  0  0  0  0  0  0  0
   -2.9538   -1.1714    1.4588 O   0  0  0  0  0  0  0  0  0  0  0  0
   -1.1033   -2.4426    1.7295 N   0  0  0  0  0  0  0  0  0  0  0  0
   -1.6135   -2.8287    3.0111 C   0  0  2  0  0  0  0  0  0  0  0  0
   -0.5972   -2.4958    4.0971 C   0  0  0  0  0  0  0  0  0  0  0  0
   -1.8883   -4.3177    3.0937 C   0  0  1  0  0  0  0  0  0  0  0  0
   -2.4882   -4.5912    4.4297 C   0  0  0  0  0  0  0  0  0  0  0  0
   -1.8277   -5.2302    5.4475 C   0  0  0  0  0  0  0  0  0  0  0  0
   -2.4323   -5.4451    6.6646 C   0  0  0  0  0  0  0  0  0  0  0  0
   -3.7246   -5.0368    6.9354 C   0  0  0  0  0  0  0  0  0  0  0  0
   -4.4054   -4.3866    5.9087 C   0  0  0  0  0  0  0  0  0  0  0  0
   -3.7975   -4.1691    4.6795 C   0  0  0  0  0  0  0  0  0  0  0  0
   -2.8108   -4.6984    2.1272 O   0  0  0  0  0  0  0  0  0  0  0  0
   -1.4035   -0.4573   -2.5437 O   0  0  0  0  0  0  0  0  0  0  0  0
   -0.7543    0.6950   -2.9750 C   0  0  0  0  0  0  0  0  0  0  0  0
   -4.6395    1.6287    3.2065 O   0  0  0  0  0  0  0  0  0  0  0  0
   -5.8939    1.7335    3.7290 C   0  0  0  0  0  0  0  0  0  0  0  0
   -2.3433    3.3230    3.7348 N   0  0  0  0  0  0  0  0  0  0  0  0
   -2.7080    3.1272    5.2395 C   0  0  0  0  0  0  0  0  0  0  0  0
   -0.9738    3.1817    3.5675 C   0  0  0  0  0  0  0  0  0  0  0  0
   -0.4147    2.7331    4.7405 O   0  0  0  0  0  0  0  0  0  0  0  0
    0.0677    3.3380    2.6183 C   0  0  1  0  0  0  0  0  0  0  0  0
    0.7480    4.6295    2.3393 C   0  0  0  0  0  0  0  0  0  0  0  0
    0.0111    5.8089    1.8366 C   0  0  0  0  0  0  0  0  0  0  0  0
    1.5952    5.1402    3.4977 C   0  0  0  0  0  0  0  0  0  0  0  0
    1.2396    2.5872    3.2602 N   0  0  0  0  0  0  0  0  0  0  0  0
    2.1582    1.8694    2.4821 C   0  0  0  0  0  0  0  0  0  0  0  0
    1.9584    1.8770    1.2163 O   0  0  0  0  0  0  0  0  0  0  0  0
    3.3129    1.1200    2.9580 C   0  0  1  0  0  0  0  0  0  0  0  0
    4.6180    1.5903    2.3392 C   0  0  0  0  0  0  0  0  0  0  0  0
    4.9555    3.0139    2.5838 C   0  0  0  0  0  0  0  0  0  0  0  0
    4.6726    1.1659    0.8907 C   0  0  0  0  0  0  0  0  0  0  0  0
    3.5117    0.9719    4.3550 N   0  0  0  0  0  0  0  0  0  0  0  0
    3.6646    2.0218    5.3389 C   0  0  0  0  0  0  0  0  0  0  0  0
    3.6101   -0.3772    4.8881 C   0  0  0  0  0  0  0  0  0  0  0  0
    3.6941   -0.5960    6.1191 O   0  0  0  0  0  0  0  0  0  0  0  0
    3.6193   -1.4435    4.0243 O   0  0  0  0  0  0  0  0  0  0  0  0
    3.7114   -2.8146    4.3613 C   0  0  0  0  0  0  0  0  0  0  0  0
    3.7558   -3.5203    3.0233 C   0  0  0  0  0  0  0  0  0  0  0  0
    5.0463   -3.7208    2.5279 C   0  0  0  0  0  0  0  0  0  0  0  0
    5.2066   -4.3036    1.2945 C   0  0  0  0  0  0  0  0  0  0  0  0
    4.0693   -4.6578    0.6150 C   0  0  0  0  0  0  0  0  0  0  0  0
    2.7920   -4.4637    1.1020 C   0  0  0  0  0  0  0  0  0  0  0  0
    2.6277   -3.8774    2.3445 C   0  0  0  0  0  0  0  0  0  0  0  0
    4.1340   -5.2235   -0.7159 N   0  0  0  0  0  0  0  0  0  0  0  0
    4.1166   -4.2435   -1.7500 C   0  0  0  0  0  0  0  0  0  0  0  0
    4.0585   -3.0402   -1.3707 O   0  0  0  0  0  0  0  0  0  0  0  0
    4.1573   -4.5173   -3.1846 C   0  0  1  0  0  0  0  0  0  0  0  0
    3.0463   -5.4527   -3.6221 C   0  0  0  0  0  0  0  0  0  0  0  0
    1.6819   -4.8777   -3.3050 C   0  0  0  0  0  0  0  0  0  0  0  0
    0.6388   -5.8719   -3.7586 C   0  0  0  0  0  0  0  0  0  0  0  0
   -0.7198   -5.4146   -3.4823 N   0  0  0  0  0  0  0  0  0  0  0  0
   -1.1583   -5.1496   -2.1559 C   0  0  0  0  0  0  0  0  0  0  0  0
   -0.4109   -5.2939   -1.1412 O   0  0  0  0  0  0  0  0  0  0  0  0
   -2.4930   -4.6940   -1.8674 N   0  0  0  0  0  0  0  0  0  0  0  0
    4.1246   -3.3377   -3.9917 N   0  0  0  0  0  0  0  0  0  0  0  0
    5.0879   -2.9556   -4.9526 C   0  0  0  0  0  0  0  0  0  0  0  0
    6.1183   -3.6710   -5.1984 O   0  0  0  0  0  0  0  0  0  0  0  0
    4.9938   -1.7026   -5.7582 C   0  0  1  0  0  0  0  0  0  0  0  0
    5.0801   -1.9878   -7.2156 C   0  0  0  0  0  0  0  0  0  0  0  0
    4.9812   -0.6847   -7.9876 C   0  0  0  0  0  0  0  0  0  0  0  0
    6.4793   -2.5407   -7.4796 C   0  0  0  0  0  0  0  0  0  0  0  0
    3.8141   -1.0133   -5.3264 N   0  0  0  0  0  0  0  0  0  0  0  0
    3.9831    0.3016   -4.7877 C   0  0  0  0  0  0  0  0  0  0  0  0
    5.1014    0.8209   -4.7021 O   0  0  0  0  0  0  0  0  0  0  0  0
    2.8143    1.1001   -4.3084 C   0  0  0  0  0  0  0  0  0  0  0  0
    3.3608    2.4592   -3.8981 C   0  0  0  0  0  0  0  0  0  0  0  0
    2.2393    3.3298   -3.3910 C   0  0  0  0  0  0  0  0  0  0  0  0
    1.1474    3.5556   -4.3925 C   0  0  0  0  0  0  0  0  0  0  0  0
    1.7399    4.2190   -5.6251 C   0  0  0  0  0  0  0  0  0  0  0  0
    0.6381    4.4077   -6.5629 N   0  0  0  0  0  0  0  0  0  0  0  0
   -0.2385    5.5304   -6.6922 C   0  0  0  0  0  0  0  0  0  0  0  0
   -0.2190    6.5756   -6.0154 O   0  0  0  0  0  0  0  0  0  0  0  0
   -1.1553    5.2010   -7.7750 C   0  0  0  0  0  0  0  0  0  0  0  0
   -0.8701    4.0018   -8.2592 C   0  0  0  0  0  0  0  0  0  0  0  0
    0.2624    3.4268   -7.5404 C   0  0  0  0  0  0  0  0  0  0  0  0
    0.8195    2.2984   -7.7200 O   0  0  0  0  0  0  0  0  0  0  0  0
   -6.4951    4.9854    3.9245 H   0  0  0  0  0  0  0  0  0  0  0  0
   -4.8442    5.3324    4.7160 H   0  0  0  0  0  0  0  0  0  0  0  0
   -5.9112    6.6229    4.1973 H   0  0  0  0  0  0  0  0  0  0  0  0
   -5.6721    5.1381    1.7701 H   0  0  0  0  0  0  0  0  0  0  0  0
   -4.8631    6.6454    2.2071 H   0  0  0  0  0  0  0  0  0  0  0  0
   -2.9651    5.6374    3.0712 H   0  0  0  0  0  0  0  0  0  0  0  0
   -3.9196    5.0273    0.2926 H   0  0  0  0  0  0  0  0  0  0  0  0
   -2.6775    6.1275    0.8605 H   0  0  0  0  0  0  0  0  0  0  0  0
   -2.2598    4.3999    0.8866 H   0  0  0  0  0  0  0  0  0  0  0  0
   -4.3182    3.6857    3.8591 H   0  0  0  0  0  0  0  0  0  0  0  0
   -5.1954    3.1010    1.9580 H   0  0  0  0  0  0  0  0  0  0  0  0
   -2.7362    1.4747    1.0758 H   0  0  0  0  0  0  0  0  0  0  0  0
   -3.6219    2.6979    0.1903 H   0  0  0  0  0  0  0  0  0  0  0  0
   -6.5810   -0.2586   -0.9532 H   0  0  0  0  0  0  0  0  0  0  0  0
   -5.4251   -1.7115   -1.1381 H   0  0  0  0  0  0  0  0  0  0  0  0
   -6.0865    0.5393   -3.0623 H   0  0  0  0  0  0  0  0  0  0  0  0
   -5.4253   -1.1677   -3.3733 H   0  0  0  0  0  0  0  0  0  0  0  0
   -3.4650   -0.1198   -3.7142 H   0  0  0  0  0  0  0  0  0  0  0  0
   -3.9341    1.3685   -2.8362 H   0  0  0  0  0  0  0  0  0  0  0  0
   -3.5977   -1.4727   -1.7021 H   0  0  0  0  0  0  0  0  0  0  0  0
   -1.7264    0.8890   -1.0624 H   0  0  0  0  0  0  0  0  0  0  0  0
   -1.3123   -2.1422   -0.9738 H   0  0  0  0  0  0  0  0  0  0  0  0
    0.7357   -0.9001   -1.0570 H   0  0  0  0  0  0  0  0  0  0  0  0
    0.0920    0.4371   -0.0921 H   0  0  0  0  0  0  0  0  0  0  0  0
    0.5918   -1.0800    0.6907 H   0  0  0  0  0  0  0  0  0  0  0  0
   -0.1964   -2.8090    1.3977 H   0  0  0  0  0  0  0  0  0  0  0  0
   -2.5719   -2.3374    3.1930 H   0  0  0  0  0  0  0  0  0  0  0  0
   -1.0565   -1.9014    4.9077 H   0  0  0  0  0  0  0  0  0  0  0  0
    0.2073   -1.8617    3.6368 H   0  0  0  0  0  0  0  0  0  0  0  0
   -0.0996   -3.4016    4.4921 H   0  0  0  0  0  0  0  0  0  0  0  0
   -0.9482   -4.8615    3.0177 H   0  0  0  0  0  0  0  0  0  0  0  0
   -0.8086   -5.5567    5.2387 H   0  0  0  0  0  0  0  0  0  0  0  0
   -1.9077   -5.9532    7.4734 H   0  0  0  0  0  0  0  0  0  0  0  0
   -4.2204   -5.1878    7.8806 H   0  0  0  0  0  0  0  0  0  0  0  0
   -5.4388   -4.0414    6.0682 H   0  0  0  0  0  0  0  0  0  0  0  0
   -4.3932   -3.6597    3.9395 H   0  0  0  0  0  0  0  0  0  0  0  0
   -3.6562   -4.9784    2.5467 H   0  0  0  0  0  0  0  0  0  0  0  0
   -1.5471    1.4952   -3.0526 H   0  0  0  0  0  0  0  0  0  0  0  0
    0.0994    1.0099   -2.3902 H   0  0  0  0  0  0  0  0  0  0  0  0
   -0.3983    0.5942   -4.0226 H   0  0  0  0  0  0  0  0  0  0  0  0
   -6.7668    1.6738    3.1017 H   0  0  0  0  0  0  0  0  0  0  0  0
   -6.0125    1.0065    4.6096 H   0  0  0  0  0  0  0  0  0  0  0  0
   -5.9887    2.7239    4.2719 H   0  0  0  0  0  0  0  0  0  0  0  0
   -2.5644    4.0918    5.7321 H   0  0  0  0  0  0  0  0  0  0  0  0
   -3.7615    2.8444    5.3084 H   0  0  0  0  0  0  0  0  0  0  0  0
   -2.1028    2.3272    5.6399 H   0  0  0  0  0  0  0  0  0  0  0  0
   -0.0524    2.8150    1.6759 H   0  0  0  0  0  0  0  0  0  0  0  0
    1.5401    4.4357    1.5426 H   0  0  0  0  0  0  0  0  0  0  0  0
   -0.3195    5.7338    0.7835 H   0  0  0  0  0  0  0  0  0  0  0  0
    0.6723    6.7334    1.8259 H   0  0  0  0  0  0  0  0  0  0  0  0
   -0.8451    6.1269    2.4452 H   0  0  0  0  0  0  0  0  0  0  0  0
    0.9379    5.7570    4.1264 H   0  0  0  0  0  0  0  0  0  0  0  0
    2.2158    4.4045    3.9738 H   0  0  0  0  0  0  0  0  0  0  0  0
    2.3013    5.9060    3.0502 H   0  0  0  0  0  0  0  0  0  0  0  0
    1.3552    2.6141    4.2791 H   0  0  0  0  0  0  0  0  0  0  0  0
    3.2255    0.0535    2.5547 H   0  0  0  0  0  0  0  0  0  0  0  0
    5.4249    0.9812    2.8496 H   0  0  0  0  0  0  0  0  0  0  0  0
    4.1129    3.7033    2.6818 H   0  0  0  0  0  0  0  0  0  0  0  0
    5.5867    3.3438    1.7000 H   0  0  0  0  0  0  0  0  0  0  0  0
    5.6685    3.1442    3.4514 H   0  0  0  0  0  0  0  0  0  0  0  0
    4.1633    1.9110    0.2657 H   0  0  0  0  0  0  0  0  0  0  0  0
    4.2624    0.1384    0.7979 H   0  0  0  0  0  0  0  0  0  0  0  0
    5.7102    1.1023    0.4962 H   0  0  0  0  0  0  0  0  0  0  0  0
    2.7903    2.0441    6.0402 H   0  0  0  0  0  0  0  0  0  0  0  0
    3.8016    3.0243    4.9421 H   0  0  0  0  0  0  0  0  0  0  0  0
    4.5234    1.7772    6.0389 H   0  0  0  0  0  0  0  0  0  0  0  0
    4.6345   -3.0864    4.8942 H   0  0  0  0  0  0  0  0  0  0  0  0
    2.8268   -3.1706    4.9275 H   0  0  0  0  0  0  0  0  0  0  0  0
    5.9082   -3.4321    3.0857 H   0  0  0  0  0  0  0  0  0  0  0  0
    6.1585   -4.4997    0.8396 H   0  0  0  0  0  0  0  0  0  0  0  0
    1.8993   -4.7436    0.5672 H   0  0  0  0  0  0  0  0  0  0  0  0
    1.6720   -3.7004    2.7819 H   0  0  0  0  0  0  0  0  0  0  0  0
    4.1871   -6.2117   -0.9265 H   0  0  0  0  0  0  0  0  0  0  0  0
    5.0998   -5.0534   -3.4196 H   0  0  0  0  0  0  0  0  0  0  0  0
    3.1061   -6.4480   -3.1450 H   0  0  0  0  0  0  0  0  0  0  0  0
    3.0896   -5.6080   -4.7204 H   0  0  0  0  0  0  0  0  0  0  0  0
    1.5620   -4.7449   -2.2083 H   0  0  0  0  0  0  0  0  0  0  0  0
    1.4851   -3.9427   -3.8586 H   0  0  0  0  0  0  0  0  0  0  0  0
    0.7242   -6.8482   -3.2368 H   0  0  0  0  0  0  0  0  0  0  0  0
    0.6870   -6.1018   -4.8367 H   0  0  0  0  0  0  0  0  0  0  0  0
   -1.4225   -5.2677   -4.2504 H   0  0  0  0  0  0  0  0  0  0  0  0
   -3.2352   -4.9730   -2.5677 H   0  0  0  0  0  0  0  0  0  0  0  0
   -2.6968   -4.1283   -1.0165 H   0  0  0  0  0  0  0  0  0  0  0  0
    3.2968   -2.6900   -3.8506 H   0  0  0  0  0  0  0  0  0  0  0  0
    5.8744   -1.0764   -5.5042 H   0  0  0  0  0  0  0  0  0  0  0  0
    4.4080   -2.7563   -7.5898 H   0  0  0  0  0  0  0  0  0  0  0  0
    4.0128   -0.1633   -7.8384 H   0  0  0  0  0  0  0  0  0  0  0  0
    5.8705   -0.0399   -7.7969 H   0  0  0  0  0  0  0  0  0  0  0  0
    5.0398   -0.8744   -9.1009 H   0  0  0  0  0  0  0  0  0  0  0  0
    6.7670   -2.2119   -8.4926 H   0  0  0  0  0  0  0  0  0  0  0  0
    7.2123   -2.1229   -6.7601 H   0  0  0  0  0  0  0  0  0  0  0  0
    6.4857   -3.6491   -7.4962 H   0  0  0  0  0  0  0  0  0  0  0  0
    2.8619   -1.4404   -5.3951 H   0  0  0  0  0  0  0  0  0  0  0  0
    2.1052    1.2827   -5.1368 H   0  0  0  0  0  0  0  0  0  0  0  0
    2.3292    0.6406   -3.4361 H   0  0  0  0  0  0  0  0  0  0  0  0
    4.1344    2.3201   -3.0839 H   0  0  0  0  0  0  0  0  0  0  0  0
    3.8835    2.9610   -4.7316 H   0  0  0  0  0  0  0  0  0  0  0  0
    1.7961    2.9063   -2.4537 H   0  0  0  0  0  0  0  0  0  0  0  0
    2.6246    4.3331   -3.0893 H   0  0  0  0  0  0  0  0  0  0  0  0
    0.6469    2.6108   -4.6666 H   0  0  0  0  0  0  0  0  0  0  0  0
    0.3497    4.2103   -3.9702 H   0  0  0  0  0  0  0  0  0  0  0  0
    2.1787    5.1915   -5.3590 H   0  0  0  0  0  0  0  0  0  0  0  0
    2.4990    3.5679   -6.0916 H   0  0  0  0  0  0  0  0  0  0  0  0
   -1.9385    5.8383   -8.1210 H   0  0  0  0  0  0  0  0  0  0  0  0
   -1.3789    3.4969   -9.0632 H   0  0  0  0  0  0  0  0  0  0  0  0
  1  2  1  0
  2  3  1  0
  3  4  1  0
  3  5  1  0
  5  6  1  0
  6  7  1  0
  7  8  1  0
  8  9  2  0
  8 10  1  0
 10 11  1  0
 11 12  1  0
 12 13  1  0
 13 14  1  0
 14 15  1  0
 15 16  1  0
 16 17  1  0
 16 18  1  0
 18 19  2  0
 18 20  1  0
 20 21  1  0
 21 22  1  0
 21 23  1  0
 23 24  1  0
 24 25  2  0
 25 26  1  0
 26 27  2  0
 27 28  1  0
 28 29  2  0
 23 30  1  0
 15 31  1  0
 31 32  1  0
  6 33  1  0
 33 34  1  0
  5 35  1  0
 35 36  1  0
 35 37  1  0
 37 38  2  0
 37 39  1  0
 39 40  1  0
 40 41  1  0
 40 42  1  0
 39 43  1  0
 43 44  1  0
 44 45  2  0
 44 46  1  0
 46 47  1  0
 47 48  1  0
 47 49  1  0
 46 50  1  0
 50 51  1  0
 50 52  1  0
 52 53  2  0
 52 54  1  0
 54 55  1  0
 55 56  1  0
 56 57  1  0
 57 58  2  0
 58 59  1  0
 59 60  2  0
 60 61  1  0
 59 62  1  0
 62 63  1  0
 63 64  2  0
 63 65  1  0
 65 66  1  0
 66 67  1  0
 67 68  1  0
 68 69  1  0
 69 70  1  0
 70 71  2  0
 70 72  1  0
 65 73  1  0
 73 74  1  0
 74 75  2  0
 74 76  1  0
 76 77  1  0
 77 78  1  0
 77 79  1  0
 76 80  1  0
 80 81  1  0
 81 82  2  0
 81 83  1  0
 83 84  1  0
 84 85  1  0
 85 86  1  0
 86 87  1  0
 87 88  1  0
 88 89  1  0
 89 90  2  0
 89 91  1  0
 91 92  2  0
 92 93  1  0
 93 94  2  0
 14 10  1  0
 29 24  1  0
 61 56  2  0
 93 88  1  0
  1 95  1  0
  1 96  1  0
  1 97  1  0
  2 98  1  0
  2 99  1  0
  3100  1  1
  4101  1  0
  4102  1  0
  4103  1  0
  5104  1  1
  6105  1  6
  7106  1  0
  7107  1  0
 11108  1  0
 11109  1  0
 12110  1  0
 12111  1  0
 13112  1  0
 13113  1  0
 14114  1  6
 15115  1  1
 16116  1  6
 17117  1  0
 17118  1  0
 17119  1  0
 20120  1  0
 21121  1  1
 22122  1  0
 22123  1  0
 22124  1  0
 23125  1  6
 25126  1  0
 26127  1  0
 27128  1  0
 28129  1  0
 29130  1  0
 30131  1  0
 32132  1  0
 32133  1  0
 32134  1  0
 34135  1  0
 34136  1  0
 34137  1  0
 36138  1  0
 36139  1  0
 36140  1  0
 39141  1  6
 40142  1  0
 41143  1  0
 41144  1  0
 41145  1  0
 42146  1  0
 42147  1  0
 42148  1  0
 43149  1  0
 46150  1  6
 47151  1  0
 48152  1  0
 48153  1  0
 48154  1  0
 49155  1  0
 49156  1  0
 49157  1  0
 51158  1  0
 51159  1  0
 51160  1  0
 55161  1  0
 55162  1  0
 57163  1  0
 58164  1  0
 60165  1  0
 61166  1  0
 62167  1  0
 65168  1  1
 66169  1  0
 66170  1  0
 67171  1  0
 67172  1  0
 68173  1  0
 68174  1  0
 69175  1  0
 72176  1  0
 72177  1  0
 73178  1  0
 76179  1  1
 77180  1  0
 78181  1  0
 78182  1  0
 78183  1  0
 79184  1  0
 79185  1  0
 79186  1  0
 80187  1  0
 83188  1  0
 83189  1  0
 84190  1  0
 84191  1  0
 85192  1  0
 85193  1  0
 86194  1  0
 86195  1  0
 87196  1  0
 87197  1  0
 91198  1  0
 92199  1  0
M  END
$$$$

     RDKit          3D

199202  0  0  0  0  0  0  0  0999 V2000
    2.7193    2.8922   -8.1936 C   0  0  0  0  0  0  0  0  0  0  0  0
    2.8303    2.2098   -6.7937 C   0  0  0  0  0  0  0  0  0  0  0  0
    1.7896    2.8143   -5.8710 C   0  0  2  0  0  0  0  0  0  0  0  0
    2.1013    4.2521   -5.7299 C   0  0  0  0  0  0  0  0  0  0  0  0
    1.3071    1.9820   -4.7989 C   0  0  1  0  0  0  0  0  0  0  0  0
    2.2147    1.4295   -3.6976 C   0  0  1  0  0  0  0  0  0  0  0  0
    3.5368    0.9178   -4.2008 C   0  0  0  0  0  0  0  0  0  0  0  0
    4.3412    0.2138   -3.1207 C   0  0  0  0  0  0  0  0  0  0  0  0
    3.9069    0.2174   -1.9586 O   0  0  0  0  0  0  0  0  0  0  0  0
    5.5744   -0.4614   -3.4558 N   0  0  0  0  0  0  0  0  0  0  0  0
    6.1858   -0.3507   -4.7749 C   0  0  0  0  0  0  0  0  0  0  0  0
    7.6272   -0.7713   -4.5606 C   0  0  0  0  0  0  0  0  0  0  0  0
    7.7741   -1.0258   -3.1057 C   0  0  0  0  0  0  0  0  0  0  0  0
    6.3000   -1.4423   -2.7130 C   0  0  1  0  0  0  0  0  0  0  0  0
    6.2409   -1.4263   -1.2221 C   0  0  1  0  0  0  0  0  0  0  0  0
    6.4723   -2.8443   -0.7165 C   0  0  1  0  0  0  0  0  0  0  0  0
    6.4632   -2.9728    0.7699 C   0  0  0  0  0  0  0  0  0  0  0  0
    5.3661   -3.6637   -1.3212 C   0  0  0  0  0  0  0  0  0  0  0  0
    4.5495   -3.1716   -2.1608 O   0  0  0  0  0  0  0  0  0  0  0  0
    5.1226   -5.0496   -1.0221 N   0  0  0  0  0  0  0  0  0  0  0  0
    4.0125   -5.6207   -1.7739 C   0  0  2  0  0  0  0  0  0  0  0  0
    2.6835   -5.1592   -1.1665 C   0  0  0  0  0  0  0  0  0  0  0  0
    4.0315   -7.0710   -1.9679 C   0  0  1  0  0  0  0  0  0  0  0  0
    3.8006   -7.8391   -0.6931 C   0  0  0  0  0  0  0  0  0  0  0  0
    4.8240   -8.3732    0.0380 C   0  0  0  0  0  0  0  0  0  0  0  0
    4.4780   -9.0782    1.1884 C   0  0  0  0  0  0  0  0  0  0  0  0
    3.1879   -9.2632    1.6128 C   0  0  0  0  0  0  0  0  0  0  0  0
    2.1698   -8.7243    0.8692 C   0  0  0  0  0  0  0  0  0  0  0  0
    2.4932   -8.0195   -0.2735 C   0  0  0  0  0  0  0  0  0  0  0  0
    2.9296   -7.4178   -2.7869 O   0  0  0  0  0  0  0  0  0  0  0  0
    6.9741   -0.4773   -0.6615 O   0  0  0  0  0  0  0  0  0  0  0  0
    6.4752    0.5312    0.0771 C   0  0  0  0  0  0  0  0  0  0  0  0
    2.4104    2.3842   -2.7485 O   0  0  0  0  0  0  0  0  0  0  0  0
    2.0524    2.3806   -1.4802 C   0  0  0  0  0  0  0  0  0  0  0  0
    0.0110    2.3468   -4.2459 N   0  0  0  0  0  0  0  0  0  0  0  0
    0.0637    3.6974   -3.5638 C   0  0  0  0  0  0  0  0  0  0  0  0
   -1.2164    1.7577   -4.2804 C   0  0  0  0  0  0  0  0  0  0  0  0
   -2.1068    2.4522   -3.4782 O   0  0  0  0  0  0  0  0  0  0  0  0
   -1.9414    0.6597   -4.8576 C   0  0  1  0  0  0  0  0  0  0  0  0
   -1.2255   -0.6348   -4.8383 C   0  0  0  0  0  0  0  0  0  0  0  0
   -2.0152   -1.7314   -5.5853 C   0  0  0  0  0  0  0  0  0  0  0  0
   -0.9625   -1.1523   -3.4482 C   0  0  0  0  0  0  0  0  0  0  0  0
   -3.2630    0.5545   -4.2783 N   0  0  0  0  0  0  0  0  0  0  0  0
   -4.0434   -0.4055   -3.7234 C   0  0  0  0  0  0  0  0  0  0  0  0
   -3.8143   -1.6262   -3.5426 O   0  0  0  0  0  0  0  0  0  0  0  0
   -5.4808   -0.0962   -3.1524 C   0  0  1  0  0  0  0  0  0  0  0  0
   -6.5310   -0.6070   -4.0077 C   0  0  0  0  0  0  0  0  0  0  0  0
   -6.6199   -2.0601   -4.3142 C   0  0  0  0  0  0  0  0  0  0  0  0
   -7.8670   -0.0631   -3.4745 C   0  0  0  0  0  0  0  0  0  0  0  0
   -5.3771   -0.4134   -1.7617 N   0  0  0  0  0  0  0  0  0  0  0  0
   -5.0771    0.7707   -0.8926 C   0  0  0  0  0  0  0  0  0  0  0  0
   -5.5289   -1.6651   -1.1141 C   0  0  0  0  0  0  0  0  0  0  0  0
   -6.0416   -2.6974   -1.5634 O   0  0  0  0  0  0  0  0  0  0  0  0
   -5.0144   -1.7043    0.1776 O   0  0  0  0  0  0  0  0  0  0  0  0
   -5.0901   -2.8674    1.0210 C   0  0  0  0  0  0  0  0  0  0  0  0
   -4.2852   -2.5057    2.2492 C   0  0  0  0  0  0  0  0  0  0  0  0
   -2.9177   -2.7299    2.0968 C   0  0  0  0  0  0  0  0  0  0  0  0
   -2.0669   -2.3321    3.0858 C   0  0  0  0  0  0  0  0  0  0  0  0
   -2.5095   -1.7032    4.2617 C   0  0  0  0  0  0  0  0  0  0  0  0
   -3.8635   -1.5198    4.3559 C   0  0  0  0  0  0  0  0  0  0  0  0
   -4.7781   -1.9107    3.3660 C   0  0  0  0  0  0  0  0  0  0  0  0
   -1.5393   -1.1721    5.1190 N   0  0  0  0  0  0  0  0  0  0  0  0
   -1.6628   -0.6434    6.4151 C   0  0  0  0  0  0  0  0  0  0  0  0
   -2.8027   -0.7125    6.9638 O   0  0  0  0  0  0  0  0  0  0  0  0
   -0.4745   -0.0355    7.0197 C   0  0  1  0  0  0  0  0  0  0  0  0
   -0.0031   -0.3281    8.3489 C   0  0  0  0  0  0  0  0  0  0  0  0
   -0.8745   -0.0251    9.5380 C   0  0  0  0  0  0  0  0  0  0  0  0
   -1.2114    1.4588    9.6098 C   0  0  0  0  0  0  0  0  0  0  0  0
   -0.0495    2.2963    9.6569 N   0  0  0  0  0  0  0  0  0  0  0  0
   -0.2703    3.7329    9.7229 C   0  0  0  0  0  0  0  0  0  0  0  0
   -1.5171    4.0365    9.7344 O   0  0  0  0  0  0  0  0  0  0  0  0
    0.7638    4.6724    9.7664 N   0  0  0  0  0  0  0  0  0  0  0  0
    0.6624    0.0915    6.0854 N   0  0  0  0  0  0  0  0  0  0  0  0
    0.3743    0.9077    4.9462 C   0  0  0  0  0  0  0  0  0  0  0  0
   -0.8028    1.3593    4.8971 O   0  0  0  0  0  0  0  0  0  0  0  0
    1.3805    1.2152    3.8545 C   0  0  1  0  0  0  0  0  0  0  0  0
    2.4575    0.2471    3.7237 C   0  0  0  0  0  0  0  0  0  0  0  0
    2.0067   -1.1606    3.3921 C   0  0  0  0  0  0  0  0  0  0  0  0
    3.5461    0.6150    2.7569 C   0  0  0  0  0  0  0  0  0  0  0  0
    0.5495    1.4518    2.6922 N   0  0  0  0  0  0  0  0  0  0  0  0
   -0.3981    2.4875    2.5342 C   0  0  0  0  0  0  0  0  0  0  0  0
   -0.6400    3.3569    3.3966 O   0  0  0  0  0  0  0  0  0  0  0  0
   -1.1651    2.5254    1.2611 C   0  0  0  0  0  0  0  0  0  0  0  0
   -2.5727    3.0086    1.3786 C   0  0  0  0  0  0  0  0  0  0  0  0
   -2.8320    4.3260    1.9885 C   0  0  0  0  0  0  0  0  0  0  0  0
   -4.3593    4.5447    1.8863 C   0  0  0  0  0  0  0  0  0  0  0  0
   -4.7881    5.8226    2.5406 C   0  0  0  0  0  0  0  0  0  0  0  0
   -4.5433    5.8196    3.9591 N   0  0  0  0  0  0  0  0  0  0  0  0
   -5.5406    5.3450    4.8945 C   0  0  0  0  0  0  0  0  0  0  0  0
   -6.6875    4.9047    4.5952 O   0  0  0  0  0  0  0  0  0  0  0  0
   -5.0437    5.4450    6.2410 C   0  0  0  0  0  0  0  0  0  0  0  0
   -3.8181    5.9483    6.1659 C   0  0  0  0  0  0  0  0  0  0  0  0
   -3.4522    6.2023    4.7592 C   0  0  0  0  0  0  0  0  0  0  0  0
   -2.3716    6.6714    4.3692 O   0  0  0  0  0  0  0  0  0  0  0  0
    3.5554    3.5850   -8.3582 H   0  0  0  0  0  0  0  0  0  0  0  0
    2.8703    2.0906   -8.9846 H   0  0  0  0  0  0  0  0  0  0  0  0
    1.7235    3.2886   -8.3765 H   0  0  0  0  0  0  0  0  0  0  0  0
    3.8650    2.4148   -6.5235 H   0  0  0  0  0  0  0  0  0  0  0  0
    2.6747    1.1468   -6.9768 H   0  0  0  0  0  0  0  0  0  0  0  0
    0.8872    2.8422   -6.6321 H   0  0  0  0  0  0  0  0  0  0  0  0
    2.5845    4.6055   -6.7017 H   0  0  0  0  0  0  0  0  0  0  0  0
    2.8543    4.5129   -4.9662 H   0  0  0  0  0  0  0  0  0  0  0  0
    1.2586    4.9553   -5.6261 H   0  0  0  0  0  0  0  0  0  0  0  0
    1.0406    0.9884   -5.3427 H   0  0  0  0  0  0  0  0  0  0  0  0
    1.7325    0.5679   -3.1956 H   0  0  0  0  0  0  0  0  0  0  0  0
    4.1822    1.7832   -4.5537 H   0  0  0  0  0  0  0  0  0  0  0  0
    3.4999    0.1955   -5.0220 H   0  0  0  0  0  0  0  0  0  0  0  0
    5.6899   -1.1441   -5.3903 H   0  0  0  0  0  0  0  0  0  0  0  0
    6.1142    0.6342   -5.2278 H   0  0  0  0  0  0  0  0  0  0  0  0
    7.8497   -1.7432   -5.0876 H   0  0  0  0  0  0  0  0  0  0  0  0
    8.3284    0.0451   -4.8632 H   0  0  0  0  0  0  0  0  0  0  0  0
    8.4038   -1.8898   -2.8451 H   0  0  0  0  0  0  0  0  0  0  0  0
    8.0750   -0.1706   -2.5045 H   0  0  0  0  0  0  0  0  0  0  0  0
    6.2312   -2.4196   -3.2092 H   0  0  0  0  0  0  0  0  0  0  0  0
    5.1093   -1.2349   -0.9461 H   0  0  0  0  0  0  0  0  0  0  0  0
    7.4226   -3.1976   -1.1236 H   0  0  0  0  0  0  0  0  0  0  0  0
    6.2793   -4.0694    0.9845 H   0  0  0  0  0  0  0  0  0  0  0  0
    5.7056   -2.3473    1.2365 H   0  0  0  0  0  0  0  0  0  0  0  0
    7.5013   -2.8158    1.1981 H   0  0  0  0  0  0  0  0  0  0  0  0
    5.7037   -5.5188   -0.3419 H   0  0  0  0  0  0  0  0  0  0  0  0
    3.9974   -5.0995   -2.7818 H   0  0  0  0  0  0  0  0  0  0  0  0
    1.8874   -5.5291   -1.8439 H   0  0  0  0  0  0  0  0  0  0  0  0
    2.4904   -5.5426   -0.1564 H   0  0  0  0  0  0  0  0  0  0  0  0
    2.6010   -4.0490   -1.2373 H   0  0  0  0  0  0  0  0  0  0  0  0
    4.9496   -7.4289   -2.4800 H   0  0  0  0  0  0  0  0  0  0  0  0
    5.8579   -8.2392   -0.2757 H   0  0  0  0  0  0  0  0  0  0  0  0
    5.2691   -9.5122    1.7694 H   0  0  0  0  0  0  0  0  0  0  0  0
    2.9936   -9.8341    2.5266 H   0  0  0  0  0  0  0  0  0  0  0  0
    1.1434   -8.8553    1.1733 H   0  0  0  0  0  0  0  0  0  0  0  0
    1.6421   -7.6308   -0.8311 H   0  0  0  0  0  0  0  0  0  0  0  0
    3.2324   -8.1273   -3.4133 H   0  0  0  0  0  0  0  0  0  0  0  0
    5.9151    0.2269    0.9838 H   0  0  0  0  0  0  0  0  0  0  0  0
    5.8650    1.2838   -0.4592 H   0  0  0  0  0  0  0  0  0  0  0  0
    7.3853    1.0757    0.5328 H   0  0  0  0  0  0  0  0  0  0  0  0
    0.9325    2.2368   -1.3640 H   0  0  0  0  0  0  0  0  0  0  0  0
    2.1116    3.4927   -1.0652 H   0  0  0  0  0  0  0  0  0  0  0  0
    2.4844    1.7422   -0.7104 H   0  0  0  0  0  0  0  0  0  0  0  0
   -0.5709    4.4207   -4.1644 H   0  0  0  0  0  0  0  0  0  0  0  0
    1.0350    4.1034   -3.4756 H   0  0  0  0  0  0  0  0  0  0  0  0
   -0.5445    3.5419   -2.6526 H   0  0  0  0  0  0  0  0  0  0  0  0
   -2.1171    0.8056   -5.9420 H   0  0  0  0  0  0  0  0  0  0  0  0
   -0.2727   -0.6125   -5.4358 H   0  0  0  0  0  0  0  0  0  0  0  0
   -2.0291   -2.6428   -5.0153 H   0  0  0  0  0  0  0  0  0  0  0  0
   -1.3922   -2.0097   -6.5135 H   0  0  0  0  0  0  0  0  0  0  0  0
   -2.9732   -1.3506   -5.9112 H   0  0  0  0  0  0  0  0  0  0  0  0
   -1.2760   -2.2366   -3.3404 H   0  0  0  0  0  0  0  0  0  0  0  0
    0.1439   -1.1126   -3.2118 H   0  0  0  0  0  0  0  0  0  0  0  0
   -1.4545   -0.6009   -2.6415 H   0  0  0  0  0  0  0  0  0  0  0  0
   -3.7319    1.5670   -4.3077 H   0  0  0  0  0  0  0  0  0  0  0  0
   -5.4336    1.0133   -3.2527 H   0  0  0  0  0  0  0  0  0  0  0  0
   -6.4190   -0.0642   -5.0094 H   0  0  0  0  0  0  0  0  0  0  0  0
   -7.5274   -2.4819   -3.7997 H   0  0  0  0  0  0  0  0  0  0  0  0
   -5.7274   -2.6639   -4.2156 H   0  0  0  0  0  0  0  0  0  0  0  0
   -6.9098   -2.1895   -5.4077 H   0  0  0  0  0  0  0  0  0  0  0  0
   -8.2644    0.7494   -4.0854 H   0  0  0  0  0  0  0  0  0  0  0  0
   -7.7539    0.2872   -2.4299 H   0  0  0  0  0  0  0  0  0  0  0  0
   -8.5940   -0.8979   -3.4882 H   0  0  0  0  0  0  0  0  0  0  0  0
   -4.1520    1.2669   -1.2649 H   0  0  0  0  0  0  0  0  0  0  0  0
   -5.0090    0.3964    0.1415 H   0  0  0  0  0  0  0  0  0  0  0  0
   -5.9798    1.4356   -0.9364 H   0  0  0  0  0  0  0  0  0  0  0  0
   -6.1295   -3.0035    1.3342 H   0  0  0  0  0  0  0  0  0  0  0  0
   -4.7297   -3.7596    0.5210 H   0  0  0  0  0  0  0  0  0  0  0  0
   -2.5150   -3.2123    1.2116 H   0  0  0  0  0  0  0  0  0  0  0  0
   -0.9989   -2.5261    2.9259 H   0  0  0  0  0  0  0  0  0  0  0  0
   -4.2624   -1.0452    5.2209 H   0  0  0  0  0  0  0  0  0  0  0  0
   -5.8327   -1.7526    3.4442 H   0  0  0  0  0  0  0  0  0  0  0  0
   -0.5301   -1.1865    4.7393 H   0  0  0  0  0  0  0  0  0  0  0  0
   -0.7906    1.1089    7.0585 H   0  0  0  0  0  0  0  0  0  0  0  0
    0.2949   -1.4106    8.4827 H   0  0  0  0  0  0  0  0  0  0  0  0
    1.0011    0.1952    8.5533 H   0  0  0  0  0  0  0  0  0  0  0  0
   -1.8173   -0.5679    9.5795 H   0  0  0  0  0  0  0  0  0  0  0  0
   -0.2801   -0.2632   10.4435 H   0  0  0  0  0  0  0  0  0  0  0  0
   -2.0065    1.7756    8.9191 H   0  0  0  0  0  0  0  0  0  0  0  0
   -1.6941    1.5653   10.6327 H   0  0  0  0  0  0  0  0  0  0  0  0
    0.9294    1.9753    9.6472 H   0  0  0  0  0  0  0  0  0  0  0  0
    0.6856    5.5451    9.1715 H   0  0  0  0  0  0  0  0  0  0  0  0
    1.6330    4.6185   10.3419 H   0  0  0  0  0  0  0  0  0  0  0  0
    1.5717   -0.3484    6.2232 H   0  0  0  0  0  0  0  0  0  0  0  0
    1.7202    2.2504    4.1917 H   0  0  0  0  0  0  0  0  0  0  0  0
    2.9668    0.1376    4.7398 H   0  0  0  0  0  0  0  0  0  0  0  0
    1.9433   -1.8367    4.2598 H   0  0  0  0  0  0  0  0  0  0  0  0
    1.0260   -1.1550    2.8686 H   0  0  0  0  0  0  0  0  0  0  0  0
    2.7133   -1.6576    2.6628 H   0  0  0  0  0  0  0  0  0  0  0  0
    4.2354   -0.2742    2.6856 H   0  0  0  0  0  0  0  0  0  0  0  0
    4.1787    1.4276    3.1362 H   0  0  0  0  0  0  0  0  0  0  0  0
    3.1394    0.7945    1.7563 H   0  0  0  0  0  0  0  0  0  0  0  0
    0.6861    0.7783    1.8949 H   0  0  0  0  0  0  0  0  0  0  0  0
   -1.1604    1.4698    0.8517 H   0  0  0  0  0  0  0  0  0  0  0  0
   -0.6416    3.1283    0.5008 H   0  0  0  0  0  0  0  0  0  0  0  0
   -3.1064    2.2521    2.0208 H   0  0  0  0  0  0  0  0  0  0  0  0
   -3.0167    3.0230    0.3523 H   0  0  0  0  0  0  0  0  0  0  0  0
   -2.3398    5.1647    1.5021 H   0  0  0  0  0  0  0  0  0  0  0  0
   -2.6146    4.3062    3.0998 H   0  0  0  0  0  0  0  0  0  0  0  0
   -4.6222    4.5792    0.8169 H   0  0  0  0  0  0  0  0  0  0  0  0
   -4.9164    3.6978    2.3440 H   0  0  0  0  0  0  0  0  0  0  0  0
   -5.9060    5.8723    2.3971 H   0  0  0  0  0  0  0  0  0  0  0  0
   -4.3064    6.6896    2.0379 H   0  0  0  0  0  0  0  0  0  0  0  0
   -5.5632    5.1617    7.1542 H   0  0  0  0  0  0  0  0  0  0  0  0
   -3.2207    6.1222    7.0697 H   0  0  0  0  0  0  0  0  0  0  0  0
  1  2  1  0
  2  3  1  0
  3  4  1  0
  3  5  1  0
  5  6  1  0
  6  7  1  0
  7  8  1  0
  8  9  2  0
  8 10  1  0
 10 11  1  0
 11 12  1  0
 12 13  1  0
 13 14  1  0
 14 15  1  0
 15 16  1  0
 16 17  1  0
 16 18  1  0
 18 19  2  0
 18 20  1  0
 20 21  1  0
 21 22  1  0
 21 23  1  0
 23 24  1  0
 24 25  2  0
 25 26  1  0
 26 27  2  0
 27 28  1  0
 28 29  2  0
 23 30  1  0
 15 31  1  0
 31 32  1  0
  6 33  1  0
 33 34  1  0
  5 35  1  0
 35 36  1  0
 35 37  1  0
 37 38  2  0
 37 39  1  0
 39 40  1  0
 40 41  1  0
 40 42  1  0
 39 43  1  0
 43 44  1  0
 44 45  2  0
 44 46  1  0
 46 47  1  0
 47 48  1  0
 47 49  1  0
 46 50  1  0
 50 51  1  0
 50 52  1  0
 52 53  2  0
 52 54  1  0
 54 55  1  0
 55 56  1  0
 56 57  1  0
 57 58  2  0
 58 59  1  0
 59 60  2  0
 60 61  1  0
 59 62  1  0
 62 63  1  0
 63 64  2  0
 63 65  1  0
 65 66  1  0
 66 67  1  0
 67 68  1  0
 68 69  1  0
 69 70  1  0
 70 71  2  0
 70 72  1  0
 65 73  1  0
 73 74  1  0
 74 75  2  0
 74 76  1  0
 76 77  1  0
 77 78  1  0
 77 79  1  0
 76 80  1  0
 80 81  1  0
 81 82  2  0
 81 83  1  0
 83 84  1  0
 84 85  1  0
 85 86  1  0
 86 87  1  0
 87 88  1  0
 88 89  1  0
 89 90  2  0
 89 91  1  0
 91 92  2  0
 92 93  1  0
 93 94  2  0
 14 10  1  0
 29 24  1  0
 61 56  2  0
 93 88  1  0
  1 95  1  0
  1 96  1  0
  1 97  1  0
  2 98  1  0
  2 99  1  0
  3100  1  6
  4101  1  0
  4102  1  0
  4103  1  0
  5104  1  6
  6105  1  1
  7106  1  0
  7107  1  0
 11108  1  0
 11109  1  0
 12110  1  0
 12111  1  0
 13112  1  0
 13113  1  0
 14114  1  6
 15115  1  6
 16116  1  6
 17117  1  0
 17118  1  0
 17119  1  0
 20120  1  0
 21121  1  6
 22122  1  0
 22123  1  0
 22124  1  0
 23125  1  6
 25126  1  0
 26127  1  0
 27128  1  0
 28129  1  0
 29130  1  0
 30131  1  0
 32132  1  0
 32133  1  0
 32134  1  0
 34135  1  0
 34136  1  0
 34137  1  0
 36138  1  0
 36139  1  0
 36140  1  0
 39141  1  6
 40142  1  0
 41143  1  0
 41144  1  0
 41145  1  0
 42146  1  0
 42147  1  0
 42148  1  0
 43149  1  0
 46150  1  1
 47151  1  0
 48152  1  0
 48153  1  0
 48154  1  0
 49155  1  0
 49156  1  0
 49157  1  0
 51158  1  0
 51159  1  0
 51160  1  0
 55161  1  0
 55162  1  0
 57163  1  0
 58164  1  0
 60165  1  0
 61166  1  0
 62167  1  0
 65168  1  1
 66169  1  0
 66170  1  0
 67171  1  0
 67172  1  0
 68173  1  0
 68174  1  0
 69175  1  0
 72176  1  0
 72177  1  0
 73178  1  0
 76179  1  1
 77180  1  0
 78181  1  0
 78182  1  0
 78183  1  0
 79184  1  0
 79185  1  0
 79186  1  0
 80187  1  0
 83188  1  0
 83189  1  0
 84190  1  0
 84191  1  0
 85192  1  0
 85193  1  0
 86194  1  0
 86195  1  0
 87196  1  0
 87197  1  0
 91198  1  0
 92199  1  0
M  END
$$$$

     RDKit          3D

199202  0  0  0  0  0  0  0  0999 V2000
   -2.6266    1.4489   -6.0726 C   0  0  0  0  0  0  0  0  0  0  0  0
   -1.6177    0.6710   -6.8317 C   0  0  0  0  0  0  0  0  0  0  0  0
   -0.1901    1.0791   -6.6853 C   0  0  2  0  0  0  0  0  0  0  0  0
    0.5916    0.1239   -7.5653 C   0  0  0  0  0  0  0  0  0  0  0  0
    0.3780    1.3289   -5.3675 C   0  0  1  0  0  0  0  0  0  0  0  0
    0.4648    0.2802   -4.3288 C   0  0  1  0  0  0  0  0  0  0  0  0
   -0.8053   -0.2563   -3.7778 C   0  0  0  0  0  0  0  0  0  0  0  0
   -0.5430   -1.3235   -2.7202 C   0  0  0  0  0  0  0  0  0  0  0  0
   -0.3578   -0.9962   -1.5295 O   0  0  0  0  0  0  0  0  0  0  0  0
   -0.4986   -2.6960   -3.0640 N   0  0  0  0  0  0  0  0  0  0  0  0
   -0.7468   -3.1905   -4.4477 C   0  0  0  0  0  0  0  0  0  0  0  0
    0.4199   -4.1823   -4.5673 C   0  0  0  0  0  0  0  0  0  0  0  0
    0.9823   -4.3790   -3.1775 C   0  0  0  0  0  0  0  0  0  0  0  0
   -0.1927   -3.8877   -2.3529 C   0  0  1  0  0  0  0  0  0  0  0  0
    0.0211   -3.9218   -0.8930 C   0  0  1  0  0  0  0  0  0  0  0  0
   -1.3211   -3.8985   -0.1889 C   0  0  1  0  0  0  0  0  0  0  0  0
   -2.1453   -5.1245   -0.6107 C   0  0  0  0  0  0  0  0  0  0  0  0
   -1.2191   -3.9738    1.2759 C   0  0  0  0  0  0  0  0  0  0  0  0
   -0.1561   -3.7439    1.9290 O   0  0  0  0  0  0  0  0  0  0  0  0
   -2.3389   -4.3378    2.1281 N   0  0  0  0  0  0  0  0  0  0  0  0
   -2.0364   -4.3926    3.5344 C   0  0  2  0  0  0  0  0  0  0  0  0
   -1.5616   -5.8529    3.8099 C   0  0  0  0  0  0  0  0  0  0  0  0
   -3.1962   -4.2049    4.4321 C   0  0  1  0  0  0  0  0  0  0  0  0
   -3.8118   -2.8772    4.5057 C   0  0  0  0  0  0  0  0  0  0  0  0
   -4.8700   -2.4686    3.7145 C   0  0  0  0  0  0  0  0  0  0  0  0
   -5.3491   -1.1941    3.9294 C   0  0  0  0  0  0  0  0  0  0  0  0
   -4.8551   -0.3219    4.8580 C   0  0  0  0  0  0  0  0  0  0  0  0
   -3.8058   -0.7279    5.6414 C   0  0  0  0  0  0  0  0  0  0  0  0
   -3.2963   -1.9927    5.4599 C   0  0  0  0  0  0  0  0  0  0  0  0
   -4.1456   -5.2087    4.1666 O   0  0  0  0  0  0  0  0  0  0  0  0
    0.4350   -5.2909   -0.6716 O   0  0  0  0  0  0  0  0  0  0  0  0
    1.6695   -5.4001   -0.1201 C   0  0  0  0  0  0  0  0  0  0  0  0
    1.4193   -0.6647   -4.5849 O   0  0  0  0  0  0  0  0  0  0  0  0
    2.4612   -0.7856   -3.7243 C   0  0  0  0  0  0  0  0  0  0  0  0
    1.6322    2.1218   -5.4812 N   0  0  0  0  0  0  0  0  0  0  0  0
    2.8343    1.6144   -6.0847 C   0  0  0  0  0  0  0  0  0  0  0  0
    1.5566    3.4257   -4.9673 C   0  0  0  0  0  0  0  0  0  0  0  0
    0.4206    3.8208   -4.5063 O   0  0  0  0  0  0  0  0  0  0  0  0
    2.6461    4.4284   -4.8740 C   0  0  1  0  0  0  0  0  0  0  0  0
    2.1280    5.8251   -5.1861 C   0  0  0  0  0  0  0  0  0  0  0  0
    1.1124    6.4008   -4.3259 C   0  0  0  0  0  0  0  0  0  0  0  0
    3.2864    6.7287   -5.4456 C   0  0  0  0  0  0  0  0  0  0  0  0
    3.2255    4.3215   -3.5450 N   0  0  0  0  0  0  0  0  0  0  0  0
    3.5705    5.2186   -2.5765 C   0  0  0  0  0  0  0  0  0  0  0  0
    3.4634    6.4705   -2.6817 O   0  0  0  0  0  0  0  0  0  0  0  0
    4.1091    4.7406   -1.2687 C   0  0  1  0  0  0  0  0  0  0  0  0
    3.4802    5.4490   -0.0943 C   0  0  0  0  0  0  0  0  0  0  0  0
    3.7684    6.9527   -0.1867 C   0  0  0  0  0  0  0  0  0  0  0  0
    1.9930    5.2854    0.0203 C   0  0  0  0  0  0  0  0  0  0  0  0
    3.9772    3.3180   -1.2168 N   0  0  0  0  0  0  0  0  0  0  0  0
    2.6920    2.6043   -1.3177 C   0  0  0  0  0  0  0  0  0  0  0  0
    5.0918    2.4318   -0.9271 C   0  0  0  0  0  0  0  0  0  0  0  0
    6.0685    3.0382   -0.3657 O   0  0  0  0  0  0  0  0  0  0  0  0
    5.0628    1.1188   -1.2332 O   0  0  0  0  0  0  0  0  0  0  0  0
    6.0827    0.1694   -0.8481 C   0  0  0  0  0  0  0  0  0  0  0  0
    5.7044   -0.0801    0.5985 C   0  0  0  0  0  0  0  0  0  0  0  0
    4.7734   -1.1483    0.6789 C   0  0  0  0  0  0  0  0  0  0  0  0
    4.1797   -1.5087    1.8452 C   0  0  0  0  0  0  0  0  0  0  0  0
    4.5472   -0.7490    2.9796 C   0  0  0  0  0  0  0  0  0  0  0  0
    5.4415    0.2703    2.9115 C   0  0  0  0  0  0  0  0  0  0  0  0
    6.0470    0.6231    1.6833 C   0  0  0  0  0  0  0  0  0  0  0  0
    3.7680   -1.1230    4.1281 N   0  0  0  0  0  0  0  0  0  0  0  0
    2.5394   -0.4303    4.1958 C   0  0  0  0  0  0  0  0  0  0  0  0
    2.3579    0.4288    3.2528 O   0  0  0  0  0  0  0  0  0  0  0  0
    1.4442   -0.5494    5.1651 C   0  0  1  0  0  0  0  0  0  0  0  0
    1.7016   -0.3001    6.5751 C   0  0  0  0  0  0  0  0  0  0  0  0
    2.6922   -1.1107    7.3161 C   0  0  0  0  0  0  0  0  0  0  0  0
    2.4461   -2.5797    7.3573 C   0  0  0  0  0  0  0  0  0  0  0  0
    1.1977   -2.9860    7.9392 N   0  0  0  0  0  0  0  0  0  0  0  0
    0.7939   -2.6931    9.2656 C   0  0  0  0  0  0  0  0  0  0  0  0
    1.5443   -2.0327   10.0341 O   0  0  0  0  0  0  0  0  0  0  0  0
   -0.4774   -3.1721    9.6843 N   0  0  0  0  0  0  0  0  0  0  0  0
    0.3962    0.4481    4.7540 N   0  0  0  0  0  0  0  0  0  0  0  0
   -0.3671    0.2232    3.5643 C   0  0  0  0  0  0  0  0  0  0  0  0
   -0.1323   -0.8147    2.8951 O   0  0  0  0  0  0  0  0  0  0  0  0
   -1.3676    1.2140    3.1900 C   0  0  1  0  0  0  0  0  0  0  0  0
   -0.9383    2.6568    3.3611 C   0  0  0  0  0  0  0  0  0  0  0  0
   -2.0851    3.5500    2.9251 C   0  0  0  0  0  0  0  0  0  0  0  0
    0.3221    3.0195    2.6692 C   0  0  0  0  0  0  0  0  0  0  0  0
   -1.8441    1.0168    1.8393 N   0  0  0  0  0  0  0  0  0  0  0  0
   -3.1934    1.0782    1.4630 C   0  0  0  0  0  0  0  0  0  0  0  0
   -4.1562    1.3068    2.2526 O   0  0  0  0  0  0  0  0  0  0  0  0
   -3.6635    0.8759    0.0178 C   0  0  0  0  0  0  0  0  0  0  0  0
   -5.1354    1.0807    0.0321 C   0  0  0  0  0  0  0  0  0  0  0  0
   -5.8770    1.0653   -1.2143 C   0  0  0  0  0  0  0  0  0  0  0  0
   -5.9886   -0.0679   -2.1019 C   0  0  0  0  0  0  0  0  0  0  0  0
   -4.7804   -0.6298   -2.7482 C   0  0  0  0  0  0  0  0  0  0  0  0
   -5.1964   -1.6991   -3.6954 N   0  0  0  0  0  0  0  0  0  0  0  0
   -5.3631   -3.0659   -3.4762 C   0  0  0  0  0  0  0  0  0  0  0  0
   -5.1829   -3.6717   -2.4151 O   0  0  0  0  0  0  0  0  0  0  0  0
   -5.7952   -3.6938   -4.7210 C   0  0  0  0  0  0  0  0  0  0  0  0
   -5.8820   -2.7411   -5.6447 C   0  0  0  0  0  0  0  0  0  0  0  0
   -5.5140   -1.4470   -5.0591 C   0  0  0  0  0  0  0  0  0  0  0  0
   -5.5104   -0.3881   -5.7133 O   0  0  0  0  0  0  0  0  0  0  0  0
   -2.9501    1.0278   -5.1021 H   0  0  0  0  0  0  0  0  0  0  0  0
   -2.4058    2.5356   -6.0113 H   0  0  0  0  0  0  0  0  0  0  0  0
   -3.5879    1.4301   -6.6797 H   0  0  0  0  0  0  0  0  0  0  0  0
   -1.8176   -0.4115   -6.6992 H   0  0  0  0  0  0  0  0  0  0  0  0
   -1.9232    0.8078   -7.9378 H   0  0  0  0  0  0  0  0  0  0  0  0
   -0.1224    2.0599   -7.2531 H   0  0  0  0  0  0  0  0  0  0  0  0
    1.3926    0.6600   -8.1137 H   0  0  0  0  0  0  0  0  0  0  0  0
   -0.0612   -0.2602   -8.4058 H   0  0  0  0  0  0  0  0  0  0  0  0
    1.0369   -0.7252   -7.0630 H   0  0  0  0  0  0  0  0  0  0  0  0
   -0.3049    2.1177   -4.8779 H   0  0  0  0  0  0  0  0  0  0  0  0
    0.9088    0.8280   -3.4046 H   0  0  0  0  0  0  0  0  0  0  0  0
   -1.3044    0.5598   -3.1902 H   0  0  0  0  0  0  0  0  0  0  0  0
   -1.4930   -0.7598   -4.4562 H   0  0  0  0  0  0  0  0  0  0  0  0
   -1.7187   -3.6763   -4.4883 H   0  0  0  0  0  0  0  0  0  0  0  0
   -0.6177   -2.3740   -5.1794 H   0  0  0  0  0  0  0  0  0  0  0  0
    1.1582   -3.8427   -5.3005 H   0  0  0  0  0  0  0  0  0  0  0  0
   -0.0593   -5.1552   -4.8638 H   0  0  0  0  0  0  0  0  0  0  0  0
    1.2326   -5.4279   -2.9781 H   0  0  0  0  0  0  0  0  0  0  0  0
    1.8427   -3.7212   -3.0637 H   0  0  0  0  0  0  0  0  0  0  0  0
   -1.0253   -4.6201   -2.6501 H   0  0  0  0  0  0  0  0  0  0  0  0
    0.7077   -3.2147   -0.4911 H   0  0  0  0  0  0  0  0  0  0  0  0
   -1.8764   -3.0201   -0.4964 H   0  0  0  0  0  0  0  0  0  0  0  0
   -2.5483   -5.6850    0.2521 H   0  0  0  0  0  0  0  0  0  0  0  0
   -1.5160   -5.8671   -1.1554 H   0  0  0  0  0  0  0  0  0  0  0  0
   -3.0054   -4.8393   -1.2331 H   0  0  0  0  0  0  0  0  0  0  0  0
   -3.2799   -4.5328    1.7314 H   0  0  0  0  0  0  0  0  0  0  0  0
   -1.2047   -3.7270    3.8542 H   0  0  0  0  0  0  0  0  0  0  0  0
   -0.9993   -6.2163    2.9348 H   0  0  0  0  0  0  0  0  0  0  0  0
   -0.9144   -5.8915    4.6896 H   0  0  0  0  0  0  0  0  0  0  0  0
   -2.4182   -6.5158    3.9744 H   0  0  0  0  0  0  0  0  0  0  0  0
   -2.8807   -4.4609    5.5108 H   0  0  0  0  0  0  0  0  0  0  0  0
   -5.2699   -3.1497    2.9801 H   0  0  0  0  0  0  0  0  0  0  0  0
   -6.1831   -0.8705    3.3105 H   0  0  0  0  0  0  0  0  0  0  0  0
   -5.2507    0.6848    5.0079 H   0  0  0  0  0  0  0  0  0  0  0  0
   -3.4130   -0.0382    6.3737 H   0  0  0  0  0  0  0  0  0  0  0  0
   -2.4703   -2.2798    6.0935 H   0  0  0  0  0  0  0  0  0  0  0  0
   -4.6399   -5.0411    3.3446 H   0  0  0  0  0  0  0  0  0  0  0  0
    1.8620   -6.5158    0.0072 H   0  0  0  0  0  0  0  0  0  0  0  0
    2.4301   -5.1388   -0.9219 H   0  0  0  0  0  0  0  0  0  0  0  0
    1.9080   -4.8727    0.7916 H   0  0  0  0  0  0  0  0  0  0  0  0
    2.1772   -1.0511   -2.6865 H   0  0  0  0  0  0  0  0  0  0  0  0
    3.0476    0.1456   -3.6796 H   0  0  0  0  0  0  0  0  0  0  0  0
    3.1707   -1.5487   -4.1610 H   0  0  0  0  0  0  0  0  0  0  0  0
    3.7520    1.9525   -5.5057 H   0  0  0  0  0  0  0  0  0  0  0  0
    2.8848    0.5417   -6.2457 H   0  0  0  0  0  0  0  0  0  0  0  0
    3.0369    2.0505   -7.1069 H   0  0  0  0  0  0  0  0  0  0  0  0
    3.4089    4.2762   -5.6063 H   0  0  0  0  0  0  0  0  0  0  0  0
    1.6377    5.7070   -6.2334 H   0  0  0  0  0  0  0  0  0  0  0  0
    0.8716    5.8560   -3.3928 H   0  0  0  0  0  0  0  0  0  0  0  0
    1.3208    7.4787   -4.0599 H   0  0  0  0  0  0  0  0  0  0  0  0
    0.1084    6.4874   -4.8374 H   0  0  0  0  0  0  0  0  0  0  0  0
    3.3476    6.9868   -6.5553 H   0  0  0  0  0  0  0  0  0  0  0  0
    3.1560    7.7538   -4.9961 H   0  0  0  0  0  0  0  0  0  0  0  0
    4.2862    6.3000   -5.2027 H   0  0  0  0  0  0  0  0  0  0  0  0
    3.4738    3.2772   -3.3468 H   0  0  0  0  0  0  0  0  0  0  0  0
    5.2118    4.9695   -1.1451 H   0  0  0  0  0  0  0  0  0  0  0  0
    3.9886    5.0918    0.8199 H   0  0  0  0  0  0  0  0  0  0  0  0
    2.8912    7.5181   -0.5366 H   0  0  0  0  0  0  0  0  0  0  0  0
    4.0541    7.3059    0.8222 H   0  0  0  0  0  0  0  0  0  0  0  0
    4.6764    7.1119   -0.8143 H   0  0  0  0  0  0  0  0  0  0  0  0
    1.6709    6.1073    0.7401 H   0  0  0  0  0  0  0  0  0  0  0  0
    1.4822    5.5685   -0.9220 H   0  0  0  0  0  0  0  0  0  0  0  0
    1.6446    4.3698    0.4899 H   0  0  0  0  0  0  0  0  0  0  0  0
    2.4909    2.3083   -0.2505 H   0  0  0  0  0  0  0  0  0  0  0  0
    1.9411    3.3321   -1.6262 H   0  0  0  0  0  0  0  0  0  0  0  0
    2.7578    1.6703   -1.8685 H   0  0  0  0  0  0  0  0  0  0  0  0
    6.0327   -0.7288   -1.4443 H   0  0  0  0  0  0  0  0  0  0  0  0
    7.0784    0.6125   -0.8462 H   0  0  0  0  0  0  0  0  0  0  0  0
    4.5095   -1.7174   -0.2135 H   0  0  0  0  0  0  0  0  0  0  0  0
    3.4771   -2.3168    1.8996 H   0  0  0  0  0  0  0  0  0  0  0  0
    5.6778    0.8051    3.8067 H   0  0  0  0  0  0  0  0  0  0  0  0
    6.7624    1.4170    1.6144 H   0  0  0  0  0  0  0  0  0  0  0  0
    4.0138   -1.8058    4.8404 H   0  0  0  0  0  0  0  0  0  0  0  0
    0.9405   -1.5120    4.8804 H   0  0  0  0  0  0  0  0  0  0  0  0
    0.7293   -0.2672    7.1721 H   0  0  0  0  0  0  0  0  0  0  0  0
    2.0354    0.7892    6.6637 H   0  0  0  0  0  0  0  0  0  0  0  0
    3.7055   -0.9095    6.9604 H   0  0  0  0  0  0  0  0  0  0  0  0
    2.7001   -0.6825    8.3786 H   0  0  0  0  0  0  0  0  0  0  0  0
    3.2467   -3.0239    8.0025 H   0  0  0  0  0  0  0  0  0  0  0  0
    2.5992   -3.0072    6.3495 H   0  0  0  0  0  0  0  0  0  0  0  0
    0.5484   -3.5391    7.3185 H   0  0  0  0  0  0  0  0  0  0  0  0
   -1.3824   -2.7259    9.4758 H   0  0  0  0  0  0  0  0  0  0  0  0
   -0.4867   -4.0684   10.2579 H   0  0  0  0  0  0  0  0  0  0  0  0
    0.2333    1.2974    5.3292 H   0  0  0  0  0  0  0  0  0  0  0  0
   -2.2696    1.0854    3.8522 H   0  0  0  0  0  0  0  0  0  0  0  0
   -0.8197    2.8531    4.4603 H   0  0  0  0  0  0  0  0  0  0  0  0
   -2.3492    3.4089    1.8537 H   0  0  0  0  0  0  0  0  0  0  0  0
   -1.8302    4.6183    3.0607 H   0  0  0  0  0  0  0  0  0  0  0  0
   -2.9876    3.3902    3.5718 H   0  0  0  0  0  0  0  0  0  0  0  0
    0.4258    2.5181    1.7080 H   0  0  0  0  0  0  0  0  0  0  0  0
    0.3083    4.1346    2.4441 H   0  0  0  0  0  0  0  0  0  0  0  0
    1.2275    2.9094    3.3217 H   0  0  0  0  0  0  0  0  0  0  0  0
   -1.1269    0.8172    1.0898 H   0  0  0  0  0  0  0  0  0  0  0  0
   -3.3212   -0.1035   -0.2993 H   0  0  0  0  0  0  0  0  0  0  0  0
   -3.1834    1.6854   -0.5606 H   0  0  0  0  0  0  0  0  0  0  0  0
   -5.5324    0.2966    0.7662 H   0  0  0  0  0  0  0  0  0  0  0  0
   -5.3343    2.0496    0.6301 H   0  0  0  0  0  0  0  0  0  0  0  0
   -5.4918    1.9596   -1.8473 H   0  0  0  0  0  0  0  0  0  0  0  0
   -6.9372    1.4569   -0.9432 H   0  0  0  0  0  0  0  0  0  0  0  0
   -6.5879   -0.9033   -1.6082 H   0  0  0  0  0  0  0  0  0  0  0  0
   -6.6798    0.2195   -2.9718 H   0  0  0  0  0  0  0  0  0  0  0  0
   -4.0320   -1.0633   -2.0796 H   0  0  0  0  0  0  0  0  0  0  0  0
   -4.3054    0.1605   -3.3492 H   0  0  0  0  0  0  0  0  0  0  0  0
   -6.0113   -4.7489   -4.8927 H   0  0  0  0  0  0  0  0  0  0  0  0
   -6.1786   -2.9142   -6.6794 H   0  0  0  0  0  0  0  0  0  0  0  0
  1  2  1  0
  2  3  1  0
  3  4  1  0
  3  5  1  0
  5  6  1  0
  6  7  1  0
  7  8  1  0
  8  9  2  0
  8 10  1  0
 10 11  1  0
 11 12  1  0
 12 13  1  0
 13 14  1  0
 14 15  1  0
 15 16  1  0
 16 17  1  0
 16 18  1  0
 18 19  2  0
 18 20  1  0
 20 21  1  0
 21 22  1  0
 21 23  1  0
 23 24  1  0
 24 25  2  0
 25 26  1  0
 26 27  2  0
 27 28  1  0
 28 29  2  0
 23 30  1  0
 15 31  1  0
 31 32  1  0
  6 33  1  0
 33 34  1  0
  5 35  1  0
 35 36  1  0
 35 37  1  0
 37 38  2  0
 37 39  1  0
 39 40  1  0
 40 41  1  0
 40 42  1  0
 39 43  1  0
 43 44  1  0
 44 45  2  0
 44 46  1  0
 46 47  1  0
 47 48  1  0
 47 49  1  0
 46 50  1  0
 50 51  1  0
 50 52  1  0
 52 53  2  0
 52 54  1  0
 54 55  1  0
 55 56  1  0
 56 57  1  0
 57 58  2  0
 58 59  1  0
 59 60  2  0
 60 61  1  0
 59 62  1  0
 62 63  1  0
 63 64  2  0
 63 65  1  0
 65 66  1  0
 66 67  1  0
 67 68  1  0
 68 69  1  0
 69 70  1  0
 70 71  2  0
 70 72  1  0
 65 73  1  0
 73 74  1  0
 74 75  2  0
 74 76  1  0
 76 77  1  0
 77 78  1  0
 77 79  1  0
 76 80  1  0
 80 81  1  0
 81 82  2  0
 81 83  1  0
 83 84  1  0
 84 85  1  0
 85 86  1  0
 86 87  1  0
 87 88  1  0
 88 89  1  0
 89 90  2  0
 89 91  1  0
 91 92  2  0
 92 93  1  0
 93 94  2  0
 14 10  1  0
 29 24  1  0
 61 56  2  0
 93 88  1  0
  1 95  1  0
  1 96  1  0
  1 97  1  0
  2 98  1  0
  2 99  1  0
  3100  1  6
  4101  1  0
  4102  1  0
  4103  1  0
  5104  1  1
  6105  1  1
  7106  1  0
  7107  1  0
 11108  1  0
 11109  1  0
 12110  1  0
 12111  1  0
 13112  1  0
 13113  1  0
 14114  1  1
 15115  1  1
 16116  1  1
 17117  1  0
 17118  1  0
 17119  1  0
 20120  1  0
 21121  1  1
 22122  1  0
 22123  1  0
 22124  1  0
 23125  1  1
 25126  1  0
 26127  1  0
 27128  1  0
 28129  1  0
 29130  1  0
 30131  1  0
 32132  1  0
 32133  1  0
 32134  1  0
 34135  1  0
 34136  1  0
 34137  1  0
 36138  1  0
 36139  1  0
 36140  1  0
 39141  1  6
 40142  1  0
 41143  1  0
 41144  1  0
 41145  1  0
 42146  1  0
 42147  1  0
 42148  1  0
 43149  1  0
 46150  1  6
 47151  1  0
 48152  1  0
 48153  1  0
 48154  1  0
 49155  1  0
 49156  1  0
 49157  1  0
 51158  1  0
 51159  1  0
 51160  1  0
 55161  1  0
 55162  1  0
 57163  1  0
 58164  1  0
 60165  1  0
 61166  1  0
 62167  1  0
 65168  1  1
 66169  1  0
 66170  1  0
 67171  1  0
 67172  1  0
 68173  1  0
 68174  1  0
 69175  1  0
 72176  1  0
 72177  1  0
 73178  1  0
 76179  1  1
 77180  1  0
 78181  1  0
 78182  1  0
 78183  1  0
 79184  1  0
 79185  1  0
 79186  1  0
 80187  1  0
 83188  1  0
 83189  1  0
 84190  1  0
 84191  1  0
 85192  1  0
 85193  1  0
 86194  1  0
 86195  1  0
 87196  1  0
 87197  1  0
 91198  1  0
 92199  1  0
M  END
$$$$

     RDKit          3D

199202  0  0  0  0  0  0  0  0999 V2000
    2.0970    1.6895    8.0096 C   0  0  0  0  0  0  0  0  0  0  0  0
    2.2529    1.9815    6.4970 C   0  0  0  0  0  0  0  0  0  0  0  0
    3.5630    1.5292    6.0368 C   0  0  2  0  0  0  0  0  0  0  0  0
    4.7087    2.2392    6.7957 C   0  0  0  0  0  0  0  0  0  0  0  0
    3.9676    1.3646    4.6521 C   0  0  1  0  0  0  0  0  0  0  0  0
    3.2398    0.3487    3.7530 C   0  0  1  0  0  0  0  0  0  0  0  0
    4.3447   -0.4095    2.9817 C   0  0  0  0  0  0  0  0  0  0  0  0
    3.9160   -1.4296    2.0350 C   0  0  0  0  0  0  0  0  0  0  0  0
    2.8338   -1.5091    1.4384 O   0  0  0  0  0  0  0  0  0  0  0  0
    4.8800   -2.4899    1.7633 N   0  0  0  0  0  0  0  0  0  0  0  0
    6.2155   -2.4442    2.3638 C   0  0  0  0  0  0  0  0  0  0  0  0
    6.9454   -3.5647    1.6941 C   0  0  0  0  0  0  0  0  0  0  0  0
    5.8608   -4.5917    1.4793 C   0  0  0  0  0  0  0  0  0  0  0  0
    4.7388   -3.6735    0.9584 C   0  0  1  0  0  0  0  0  0  0  0  0
    3.4348   -4.3655    0.9812 C   0  0  1  0  0  0  0  0  0  0  0  0
    3.3156   -5.4640   -0.0688 C   0  0  1  0  0  0  0  0  0  0  0  0
    1.9417   -6.0615    0.0263 C   0  0  0  0  0  0  0  0  0  0  0  0
    3.5675   -4.9222   -1.4055 C   0  0  0  0  0  0  0  0  0  0  0  0
    4.3301   -5.5776   -2.1991 O   0  0  0  0  0  0  0  0  0  0  0  0
    3.0381   -3.7093   -1.9195 N   0  0  0  0  0  0  0  0  0  0  0  0
    3.4040   -3.3541   -3.2761 C   0  0  2  0  0  0  0  0  0  0  0  0
    4.8321   -2.7947   -3.3414 C   0  0  0  0  0  0  0  0  0  0  0  0
    2.5358   -2.3730   -3.9484 C   0  0  1  0  0  0  0  0  0  0  0  0
    2.6482   -0.9833   -3.4065 C   0  0  0  0  0  0  0  0  0  0  0  0
    3.2370   -0.6425   -2.2292 C   0  0  0  0  0  0  0  0  0  0  0  0
    3.2707    0.6881   -1.8342 C   0  0  0  0  0  0  0  0  0  0  0  0
    2.7291    1.7030   -2.5866 C   0  0  0  0  0  0  0  0  0  0  0  0
    2.1247    1.3552   -3.7945 C   0  0  0  0  0  0  0  0  0  0  0  0
    2.0924    0.0233   -4.1860 C   0  0  0  0  0  0  0  0  0  0  0  0
    3.0494   -2.2389   -5.2815 O   0  0  0  0  0  0  0  0  0  0  0  0
    3.1851   -4.8376    2.2497 O   0  0  0  0  0  0  0  0  0  0  0  0
    2.0619   -4.4814    2.9009 C   0  0  0  0  0  0  0  0  0  0  0  0
    2.6323   -0.6215    4.5147 O   0  0  0  0  0  0  0  0  0  0  0  0
    1.3083   -0.8604    4.3157 C   0  0  0  0  0  0  0  0  0  0  0  0
    4.5161    2.4721    3.9245 N   0  0  0  0  0  0  0  0  0  0  0  0
    6.0115    2.4179    3.7417 C   0  0  0  0  0  0  0  0  0  0  0  0
    3.9016    3.5782    3.3631 C   0  0  0  0  0  0  0  0  0  0  0  0
    4.7788    4.4179    2.7907 O   0  0  0  0  0  0  0  0  0  0  0  0
    2.5576    4.0709    3.2266 C   0  0  1  0  0  0  0  0  0  0  0  0
    2.2507    4.3347    1.7000 C   0  0  0  0  0  0  0  0  0  0  0  0
    3.1930    5.3342    1.1579 C   0  0  0  0  0  0  0  0  0  0  0  0
    2.1314    3.0452    0.9688 C   0  0  0  0  0  0  0  0  0  0  0  0
    1.4171    3.4211    3.7341 N   0  0  0  0  0  0  0  0  0  0  0  0
    0.2794    4.2336    4.1018 C   0  0  0  0  0  0  0  0  0  0  0  0
    0.4093    5.4722    3.9524 O   0  0  0  0  0  0  0  0  0  0  0  0
   -0.9933    3.6202    4.6233 C   0  0  1  0  0  0  0  0  0  0  0  0
   -1.1103    3.8419    6.0663 C   0  0  0  0  0  0  0  0  0  0  0  0
   -1.0779    5.2288    6.6103 C   0  0  0  0  0  0  0  0  0  0  0  0
   -2.3219    3.0777    6.6566 C   0  0  0  0  0  0  0  0  0  0  0  0
   -2.0813    3.8075    3.7426 N   0  0  0  0  0  0  0  0  0  0  0  0
   -2.4730    2.5914    2.9531 C   0  0  0  0  0  0  0  0  0  0  0  0
   -2.8525    5.0050    3.5217 C   0  0  0  0  0  0  0  0  0  0  0  0
   -2.5314    5.9620    4.3276 O   0  0  0  0  0  0  0  0  0  0  0  0
   -3.7771    5.2317    2.6635 O   0  0  0  0  0  0  0  0  0  0  0  0
   -4.7283    5.4834    1.7913 C   0  0  0  0  0  0  0  0  0  0  0  0
   -4.7230    4.2799    0.8485 C   0  0  0  0  0  0  0  0  0  0  0  0
   -5.4272    3.1412    1.0678 C   0  0  0  0  0  0  0  0  0  0  0  0
   -5.2510    2.1084    0.1266 C   0  0  0  0  0  0  0  0  0  0  0  0
   -4.4021    2.2812   -0.9454 C   0  0  0  0  0  0  0  0  0  0  0  0
   -3.6905    3.4541   -1.1568 C   0  0  0  0  0  0  0  0  0  0  0  0
   -3.8604    4.4605   -0.2424 C   0  0  0  0  0  0  0  0  0  0  0  0
   -4.1587    1.2454   -1.9189 N   0  0  0  0  0  0  0  0  0  0  0  0
   -3.0423    0.3924   -1.5890 C   0  0  0  0  0  0  0  0  0  0  0  0
   -2.4675    0.7038   -0.4860 O   0  0  0  0  0  0  0  0  0  0  0  0
   -2.5569   -0.7077   -2.3518 C   0  0  1  0  0  0  0  0  0  0  0  0
   -2.8773   -2.0523   -1.6530 C   0  0  0  0  0  0  0  0  0  0  0  0
   -2.2567   -2.1500   -0.2958 C   0  0  0  0  0  0  0  0  0  0  0  0
   -2.5329   -3.4896    0.3637 C   0  0  0  0  0  0  0  0  0  0  0  0
   -3.9348   -3.7562    0.5429 N   0  0  0  0  0  0  0  0  0  0  0  0
   -4.2619   -5.0185    1.1588 C   0  0  0  0  0  0  0  0  0  0  0  0
   -3.2811   -5.7641    1.4800 O   0  0  0  0  0  0  0  0  0  0  0  0
   -5.6002   -5.4144    1.3972 N   0  0  0  0  0  0  0  0  0  0  0  0
   -3.2233   -0.8304   -3.6374 N   0  0  0  0  0  0  0  0  0  0  0  0
   -2.5511   -1.6039   -4.6122 C   0  0  0  0  0  0  0  0  0  0  0  0
   -1.4324   -2.1429   -4.2812 O   0  0  0  0  0  0  0  0  0  0  0  0
   -3.0031   -1.8608   -5.9878 C   0  0  1  0  0  0  0  0  0  0  0  0
   -3.6530   -3.2464   -5.9556 C   0  0  0  0  0  0  0  0  0  0  0  0
   -4.1395   -3.5672   -7.3680 C   0  0  0  0  0  0  0  0  0  0  0  0
   -4.8727   -3.2523   -5.0670 C   0  0  0  0  0  0  0  0  0  0  0  0
   -4.0484   -0.8949   -6.3166 N   0  0  0  0  0  0  0  0  0  0  0  0
   -3.8609   -0.2184   -7.5776 C   0  0  0  0  0  0  0  0  0  0  0  0
   -2.8518   -0.5496   -8.2379 O   0  0  0  0  0  0  0  0  0  0  0  0
   -4.7778    0.8035   -8.0880 C   0  0  0  0  0  0  0  0  0  0  0  0
   -4.4134    1.5692   -9.2664 C   0  0  0  0  0  0  0  0  0  0  0  0
   -3.3661    2.5511   -9.4356 C   0  0  0  0  0  0  0  0  0  0  0  0
   -1.9501    2.3612   -9.1792 C   0  0  0  0  0  0  0  0  0  0  0  0
   -1.3847    2.2844   -7.8105 C   0  0  0  0  0  0  0  0  0  0  0  0
   -1.5687    3.5422   -7.0766 N   0  0  0  0  0  0  0  0  0  0  0  0
   -0.6227    4.6341   -7.1110 C   0  0  0  0  0  0  0  0  0  0  0  0
    0.4523    4.6762   -7.7572 O   0  0  0  0  0  0  0  0  0  0  0  0
   -1.1308    5.6983   -6.2583 C   0  0  0  0  0  0  0  0  0  0  0  0
   -2.2958    5.3307   -5.7211 C   0  0  0  0  0  0  0  0  0  0  0  0
   -2.5886    3.9779   -6.2230 C   0  0  0  0  0  0  0  0  0  0  0  0
   -3.6191    3.3537   -5.8955 O   0  0  0  0  0  0  0  0  0  0  0  0
    2.5498    0.7218    8.2733 H   0  0  0  0  0  0  0  0  0  0  0  0
    2.4819    2.5552    8.5902 H   0  0  0  0  0  0  0  0  0  0  0  0
    1.0192    1.6328    8.2473 H   0  0  0  0  0  0  0  0  0  0  0  0
    1.3672    1.5224    6.0532 H   0  0  0  0  0  0  0  0  0  0  0  0
    2.0847    3.0804    6.4275 H   0  0  0  0  0  0  0  0  0  0  0  0
    3.6532    0.4649    6.4973 H   0  0  0  0  0  0  0  0  0  0  0  0
    4.9931    3.1569    6.2356 H   0  0  0  0  0  0  0  0  0  0  0  0
    4.4128    2.4253    7.8410 H   0  0  0  0  0  0  0  0  0  0  0  0
    5.6174    1.6022    6.8229 H   0  0  0  0  0  0  0  0  0  0  0  0
    4.9610    0.7030    4.8572 H   0  0  0  0  0  0  0  0  0  0  0  0
    2.6428    0.8474    2.9964 H   0  0  0  0  0  0  0  0  0  0  0  0
    4.9404    0.4098    2.4944 H   0  0  0  0  0  0  0  0  0  0  0  0
    5.0722   -0.8416    3.7208 H   0  0  0  0  0  0  0  0  0  0  0  0
    6.1922   -2.5259    3.4480 H   0  0  0  0  0  0  0  0  0  0  0  0
    6.7364   -1.4977    2.0740 H   0  0  0  0  0  0  0  0  0  0  0  0
    7.4247   -3.2353    0.7486 H   0  0  0  0  0  0  0  0  0  0  0  0
    7.7109   -3.9684    2.4131 H   0  0  0  0  0  0  0  0  0  0  0  0
    5.6238   -4.9960    2.4593 H   0  0  0  0  0  0  0  0  0  0  0  0
    6.1332   -5.3446    0.7282 H   0  0  0  0  0  0  0  0  0  0  0  0
    5.0904   -3.4083   -0.0589 H   0  0  0  0  0  0  0  0  0  0  0  0
    2.6164   -3.6779    0.7116 H   0  0  0  0  0  0  0  0  0  0  0  0
    4.0178   -6.3054    0.1664 H   0  0  0  0  0  0  0  0  0  0  0  0
    1.8268   -6.8082    0.8555 H   0  0  0  0  0  0  0  0  0  0  0  0
    1.6741   -6.6550   -0.9010 H   0  0  0  0  0  0  0  0  0  0  0  0
    1.1253   -5.2849    0.0464 H   0  0  0  0  0  0  0  0  0  0  0  0
    2.4065   -3.1765   -1.2991 H   0  0  0  0  0  0  0  0  0  0  0  0
    3.4578   -4.3044   -3.8955 H   0  0  0  0  0  0  0  0  0  0  0  0
    5.2831   -2.9335   -2.3669 H   0  0  0  0  0  0  0  0  0  0  0  0
    5.3907   -3.3523   -4.1484 H   0  0  0  0  0  0  0  0  0  0  0  0
    4.8529   -1.7378   -3.6419 H   0  0  0  0  0  0  0  0  0  0  0  0
    1.4819   -2.7131   -4.0407 H   0  0  0  0  0  0  0  0  0  0  0  0
    3.6968   -1.3467   -1.5874 H   0  0  0  0  0  0  0  0  0  0  0  0
    3.7530    0.9399   -0.8795 H   0  0  0  0  0  0  0  0  0  0  0  0
    2.7848    2.7213   -2.2338 H   0  0  0  0  0  0  0  0  0  0  0  0
    1.7030    2.1575   -4.3757 H   0  0  0  0  0  0  0  0  0  0  0  0
    1.6039   -0.1831   -5.1371 H   0  0  0  0  0  0  0  0  0  0  0  0
    2.3092   -1.9999   -5.8999 H   0  0  0  0  0  0  0  0  0  0  0  0
    1.9429   -4.9473    3.9123 H   0  0  0  0  0  0  0  0  0  0  0  0
    2.1389   -3.3899    3.1599 H   0  0  0  0  0  0  0  0  0  0  0  0
    1.1160   -4.5547    2.3202 H   0  0  0  0  0  0  0  0  0  0  0  0
    1.0155   -1.6860    5.0416 H   0  0  0  0  0  0  0  0  0  0  0  0
    1.0942   -1.2857    3.3342 H   0  0  0  0  0  0  0  0  0  0  0  0
    0.6071   -0.0343    4.5759 H   0  0  0  0  0  0  0  0  0  0  0  0
    6.4004    1.4528    4.1203 H   0  0  0  0  0  0  0  0  0  0  0  0
    6.5062    3.2083    4.3076 H   0  0  0  0  0  0  0  0  0  0  0  0
    6.2257    2.4270    2.6468 H   0  0  0  0  0  0  0  0  0  0  0  0
    2.5616    5.1606    3.5709 H   0  0  0  0  0  0  0  0  0  0  0  0
    1.2378    4.7844    1.7392 H   0  0  0  0  0  0  0  0  0  0  0  0
    2.6421    5.8864    0.3353 H   0  0  0  0  0  0  0  0  0  0  0  0
    3.3846    6.0949    1.9268 H   0  0  0  0  0  0  0  0  0  0  0  0
    4.0814    4.9259    0.6512 H   0  0  0  0  0  0  0  0  0  0  0  0
    1.6067    3.1491   -0.0018 H   0  0  0  0  0  0  0  0  0  0  0  0
    1.4191    2.4113    1.5802 H   0  0  0  0  0  0  0  0  0  0  0  0
    3.0766    2.5395    0.7719 H   0  0  0  0  0  0  0  0  0  0  0  0
    1.2824    2.4096    3.8755 H   0  0  0  0  0  0  0  0  0  0  0  0
   -0.7409    2.4948    4.5324 H   0  0  0  0  0  0  0  0  0  0  0  0
   -0.2464    3.3032    6.5551 H   0  0  0  0  0  0  0  0  0  0  0  0
   -0.4969    5.2455    7.6122 H   0  0  0  0  0  0  0  0  0  0  0  0
   -0.5391    5.9698    6.0214 H   0  0  0  0  0  0  0  0  0  0  0  0
   -2.0640    5.5993    6.9103 H   0  0  0  0  0  0  0  0  0  0  0  0
   -2.2419    2.0329    6.3393 H   0  0  0  0  0  0  0  0  0  0  0  0
   -3.2703    3.5536    6.4234 H   0  0  0  0  0  0  0  0  0  0  0  0
   -2.1962    3.1185    7.7612 H   0  0  0  0  0  0  0  0  0  0  0  0
   -2.2970    2.8071    1.8761 H   0  0  0  0  0  0  0  0  0  0  0  0
   -3.5180    2.3307    3.1598 H   0  0  0  0  0  0  0  0  0  0  0  0
   -1.8334    1.7465    3.2439 H   0  0  0  0  0  0  0  0  0  0  0  0
   -5.7675    5.4192    2.2432 H   0  0  0  0  0  0  0  0  0  0  0  0
   -4.6594    6.4114    1.1724 H   0  0  0  0  0  0  0  0  0  0  0  0
   -6.0609    3.0629    1.9082 H   0  0  0  0  0  0  0  0  0  0  0  0
   -5.7842    1.1782    0.2451 H   0  0  0  0  0  0  0  0  0  0  0  0
   -3.0408    3.5911   -1.9840 H   0  0  0  0  0  0  0  0  0  0  0  0
   -3.3115    5.3817   -0.3929 H   0  0  0  0  0  0  0  0  0  0  0  0
   -4.7224    1.1238   -2.7736 H   0  0  0  0  0  0  0  0  0  0  0  0
   -1.4395   -0.7510   -2.4840 H   0  0  0  0  0  0  0  0  0  0  0  0
   -2.5590   -2.9143   -2.2491 H   0  0  0  0  0  0  0  0  0  0  0  0
   -3.9688   -2.1137   -1.5216 H   0  0  0  0  0  0  0  0  0  0  0  0
   -2.7026   -1.3912    0.4001 H   0  0  0  0  0  0  0  0  0  0  0  0
   -1.1757   -1.9912   -0.3483 H   0  0  0  0  0  0  0  0  0  0  0  0
   -1.9753   -3.4823    1.3344 H   0  0  0  0  0  0  0  0  0  0  0  0
   -2.0897   -4.3329   -0.2335 H   0  0  0  0  0  0  0  0  0  0  0  0
   -4.7024   -3.0962    0.2556 H   0  0  0  0  0  0  0  0  0  0  0  0
   -6.0424   -6.0847    0.7419 H   0  0  0  0  0  0  0  0  0  0  0  0
   -6.1054   -5.0117    2.2378 H   0  0  0  0  0  0  0  0  0  0  0  0
   -4.1221   -0.4120   -3.8845 H   0  0  0  0  0  0  0  0  0  0  0  0
   -2.1586   -1.8472   -6.6757 H   0  0  0  0  0  0  0  0  0  0  0  0
   -2.9545   -4.0396   -5.6544 H   0  0  0  0  0  0  0  0  0  0  0  0
   -4.6446   -2.6789   -7.7808 H   0  0  0  0  0  0  0  0  0  0  0  0
   -4.9082   -4.3603   -7.2271 H   0  0  0  0  0  0  0  0  0  0  0  0
   -3.3211   -3.9271   -8.0015 H   0  0  0  0  0  0  0  0  0  0  0  0
   -5.2947   -4.2954   -5.1547 H   0  0  0  0  0  0  0  0  0  0  0  0
   -5.6390   -2.6029   -5.5416 H   0  0  0  0  0  0  0  0  0  0  0  0
   -4.6762   -3.0653   -4.0146 H   0  0  0  0  0  0  0  0  0  0  0  0
   -4.8632   -0.6878   -5.7282 H   0  0  0  0  0  0  0  0  0  0  0  0
   -5.0470    1.5162   -7.2452 H   0  0  0  0  0  0  0  0  0  0  0  0
   -5.7864    0.2782   -8.2486 H   0  0  0  0  0  0  0  0  0  0  0  0
   -4.2897    0.8302  -10.1679 H   0  0  0  0  0  0  0  0  0  0  0  0
   -5.4036    2.0988   -9.5923 H   0  0  0  0  0  0  0  0  0  0  0  0
   -3.4151    2.9738  -10.5322 H   0  0  0  0  0  0  0  0  0  0  0  0
   -3.7373    3.5189   -8.8935 H   0  0  0  0  0  0  0  0  0  0  0  0
   -1.3212    3.1407   -9.7399 H   0  0  0  0  0  0  0  0  0  0  0  0
   -1.6252    1.3832   -9.6919 H   0  0  0  0  0  0  0  0  0  0  0  0
   -1.6673    1.4397   -7.2030 H   0  0  0  0  0  0  0  0  0  0  0  0
   -0.2513    2.1757   -7.9661 H   0  0  0  0  0  0  0  0  0  0  0  0
   -0.6056    6.6516   -6.1096 H   0  0  0  0  0  0  0  0  0  0  0  0
   -2.8771    5.9282   -5.0532 H   0  0  0  0  0  0  0  0  0  0  0  0
  1  2  1  0
  2  3  1  0
  3  4  1  0
  3  5  1  0
  5  6  1  0
  6  7  1  0
  7  8  1  0
  8  9  2  0
  8 10  1  0
 10 11  1  0
 11 12  1  0
 12 13  1  0
 13 14  1  0
 14 15  1  0
 15 16  1  0
 16 17  1  0
 16 18  1  0
 18 19  2  0
 18 20  1  0
 20 21  1  0
 21 22  1  0
 21 23  1  0
 23 24  1  0
 24 25  2  0
 25 26  1  0
 26 27  2  0
 27 28  1  0
 28 29  2  0
 23 30  1  0
 15 31  1  0
 31 32  1  0
  6 33  1  0
 33 34  1  0
  5 35  1  0
 35 36  1  0
 35 37  1  0
 37 38  2  0
 37 39  1  0
 39 40  1  0
 40 41  1  0
 40 42  1  0
 39 43  1  0
 43 44  1  0
 44 45  2  0
 44 46  1  0
 46 47  1  0
 47 48  1  0
 47 49  1  0
 46 50  1  0
 50 51  1  0
 50 52  1  0
 52 53  2  0
 52 54  1  0
 54 55  1  0
 55 56  1  0
 56 57  1  0
 57 58  2  0
 58 59  1  0
 59 60  2  0
 60 61  1  0
 59 62  1  0
 62 63  1  0
 63 64  2  0
 63 65  1  0
 65 66  1  0
 66 67  1  0
 67 68  1  0
 68 69  1  0
 69 70  1  0
 70 71  2  0
 70 72  1  0
 65 73  1  0
 73 74  1  0
 74 75  2  0
 74 76  1  0
 76 77  1  0
 77 78  1  0
 77 79  1  0
 76 80  1  0
 80 81  1  0
 81 82  2  0
 81 83  1  0
 83 84  1  0
 84 85  1  0
 85 86  1  0
 86 87  1  0
 87 88  1  0
 88 89  1  0
 89 90  2  0
 89 91  1  0
 91 92  2  0
 92 93  1  0
 93 94  2  0
 14 10  1  0
 29 24  1  0
 61 56  2  0
 93 88  1  0
  1 95  1  0
  1 96  1  0
  1 97  1  0
  2 98  1  0
  2 99  1  0
  3100  1  1
  4101  1  0
  4102  1  0
  4103  1  0
  5104  1  1
  6105  1  6
  7106  1  0
  7107  1  0
 11108  1  0
 11109  1  0
 12110  1  0
 12111  1  0
 13112  1  0
 13113  1  0
 14114  1  6
 15115  1  6
 16116  1  1
 17117  1  0
 17118  1  0
 17119  1  0
 20120  1  0
 21121  1  6
 22122  1  0
 22123  1  0
 22124  1  0
 23125  1  6
 25126  1  0
 26127  1  0
 27128  1  0
 28129  1  0
 29130  1  0
 30131  1  0
 32132  1  0
 32133  1  0
 32134  1  0
 34135  1  0
 34136  1  0
 34137  1  0
 36138  1  0
 36139  1  0
 36140  1  0
 39141  1  1
 40142  1  0
 41143  1  0
 41144  1  0
 41145  1  0
 42146  1  0
 42147  1  0
 42148  1  0
 43149  1  0
 46150  1  1
 47151  1  0
 48152  1  0
 48153  1  0
 48154  1  0
 49155  1  0
 49156  1  0
 49157  1  0
 51158  1  0
 51159  1  0
 51160  1  0
 55161  1  0
 55162  1  0
 57163  1  0
 58164  1  0
 60165  1  0
 61166  1  0
 62167  1  0
 65168  1  6
 66169  1  0
 66170  1  0
 67171  1  0
 67172  1  0
 68173  1  0
 68174  1  0
 69175  1  0
 72176  1  0
 72177  1  0
 73178  1  0
 76179  1  6
 77180  1  0
 78181  1  0
 78182  1  0
 78183  1  0
 79184  1  0
 79185  1  0
 79186  1  0
 80187  1  0
 83188  1  0
 83189  1  0
 84190  1  0
 84191  1  0
 85192  1  0
 85193  1  0
 86194  1  0
 86195  1  0
 87196  1  0
 87197  1  0
 91198  1  0
 92199  1  0
M  END
$$$$

     RDKit          3D

199202  0  0  0  0  0  0  0  0999 V2000
    4.4412   -6.6527    0.5801 C   0  0  0  0  0  0  0  0  0  0  0  0
    4.1026   -5.1399    0.4660 C   0  0  0  0  0  0  0  0  0  0  0  0
    5.2414   -4.3101    0.9051 C   0  0  2  0  0  0  0  0  0  0  0  0
    5.6048   -4.5723    2.3613 C   0  0  0  0  0  0  0  0  0  0  0  0
    5.3073   -2.8641    0.5689 C   0  0  1  0  0  0  0  0  0  0  0  0
    5.3258   -2.5283   -0.8983 C   0  0  1  0  0  0  0  0  0  0  0  0
    5.3228   -1.0430   -1.0112 C   0  0  0  0  0  0  0  0  0  0  0  0
    5.3404   -0.4164   -2.3163 C   0  0  0  0  0  0  0  0  0  0  0  0
    6.4811    0.0380   -2.7072 O   0  0  0  0  0  0  0  0  0  0  0  0
    4.2305   -0.2476   -3.1899 N   0  0  0  0  0  0  0  0  0  0  0  0
    2.9091   -0.8371   -3.1598 C   0  0  0  0  0  0  0  0  0  0  0  0
    2.4345   -0.8234   -4.6094 C   0  0  0  0  0  0  0  0  0  0  0  0
    3.0647    0.3945   -5.2107 C   0  0  0  0  0  0  0  0  0  0  0  0
    4.1588    0.7193   -4.3140 C   0  0  1  0  0  0  0  0  0  0  0  0
    4.2438    2.1267   -3.8761 C   0  0  1  0  0  0  0  0  0  0  0  0
    3.2466    2.8158   -3.0815 C   0  0  1  0  0  0  0  0  0  0  0  0
    3.9010    4.2391   -2.7929 C   0  0  0  0  0  0  0  0  0  0  0  0
    1.8845    3.1100   -3.5078 C   0  0  0  0  0  0  0  0  0  0  0  0
    1.6437    4.3688   -3.7462 O   0  0  0  0  0  0  0  0  0  0  0  0
    0.7839    2.2796   -3.6964 N   0  0  0  0  0  0  0  0  0  0  0  0
   -0.5484    2.6889   -4.1080 C   0  0  2  0  0  0  0  0  0  0  0  0
   -1.5252    2.1154   -3.1080 C   0  0  0  0  0  0  0  0  0  0  0  0
   -0.9442    2.1504   -5.4785 C   0  0  1  0  0  0  0  0  0  0  0  0
   -0.1334    2.7346   -6.5464 C   0  0  0  0  0  0  0  0  0  0  0  0
    0.2468    4.0738   -6.5655 C   0  0  0  0  0  0  0  0  0  0  0  0
    1.0289    4.6175   -7.5552 C   0  0  0  0  0  0  0  0  0  0  0  0
    1.5009    3.8542   -8.6172 C   0  0  0  0  0  0  0  0  0  0  0  0
    1.1203    2.5137   -8.5973 C   0  0  0  0  0  0  0  0  0  0  0  0
    0.3405    1.9653   -7.6177 C   0  0  0  0  0  0  0  0  0  0  0  0
   -0.8183    0.7669   -5.3897 O   0  0  0  0  0  0  0  0  0  0  0  0
    5.5437    2.2557   -3.2820 O   0  0  0  0  0  0  0  0  0  0  0  0
    6.4079    2.9277   -4.1135 C   0  0  0  0  0  0  0  0  0  0  0  0
    6.2557   -3.2482   -1.5628 O   0  0  0  0  0  0  0  0  0  0  0  0
    5.8557   -4.0058   -2.6226 C   0  0  0  0  0  0  0  0  0  0  0  0
    4.3837   -1.9965    1.2943 N   0  0  0  0  0  0  0  0  0  0  0  0
    4.9785   -1.1527    2.3489 C   0  0  0  0  0  0  0  0  0  0  0  0
    3.0002   -1.9240    1.0643 C   0  0  0  0  0  0  0  0  0  0  0  0
    2.5653   -2.7339    0.1467 O   0  0  0  0  0  0  0  0  0  0  0  0
    1.9935   -1.0899    1.6793 C   0  0  1  0  0  0  0  0  0  0  0  0
    0.7047   -1.8235    2.0602 C   0  0  0  0  0  0  0  0  0  0  0  0
    0.0163   -2.4455    0.8634 C   0  0  0  0  0  0  0  0  0  0  0  0
   -0.3004   -0.8155    2.6258 C   0  0  0  0  0  0  0  0  0  0  0  0
    2.3642   -0.1309    2.6843 N   0  0  0  0  0  0  0  0  0  0  0  0
    2.3593    1.2546    2.4781 C   0  0  0  0  0  0  0  0  0  0  0  0
    2.0131    1.6448    1.2969 O   0  0  0  0  0  0  0  0  0  0  0  0
    2.6894    2.3420    3.4089 C   0  0  1  0  0  0  0  0  0  0  0  0
    3.9524    2.2845    4.1645 C   0  0  0  0  0  0  0  0  0  0  0  0
    3.9854    3.5839    5.0119 C   0  0  0  0  0  0  0  0  0  0  0  0
    3.8896    1.1902    5.2448 C   0  0  0  0  0  0  0  0  0  0  0  0
    2.5205    3.5733    2.6228 N   0  0  0  0  0  0  0  0  0  0  0  0
    3.4196    3.9640    1.5657 C   0  0  0  0  0  0  0  0  0  0  0  0
    1.3693    4.3550    3.0037 C   0  0  0  0  0  0  0  0  0  0  0  0
    0.7236    3.9187    3.9671 O   0  0  0  0  0  0  0  0  0  0  0  0
    1.0307    5.4921    2.3293 O   0  0  0  0  0  0  0  0  0  0  0  0
   -0.1007    6.3129    2.6249 C   0  0  0  0  0  0  0  0  0  0  0  0
   -1.2662    5.3592    2.5118 C   0  0  0  0  0  0  0  0  0  0  0  0
   -1.8206    4.8334    3.6649 C   0  0  0  0  0  0  0  0  0  0  0  0
   -2.8038    3.8834    3.5993 C   0  0  0  0  0  0  0  0  0  0  0  0
   -3.2941    3.3983    2.3783 C   0  0  0  0  0  0  0  0  0  0  0  0
   -2.7409    3.9316    1.2553 C   0  0  0  0  0  0  0  0  0  0  0  0
   -1.7413    4.8984    1.3158 C   0  0  0  0  0  0  0  0  0  0  0  0
   -4.2552    2.3762    2.4409 N   0  0  0  0  0  0  0  0  0  0  0  0
   -4.8905    1.7295    1.3751 C   0  0  0  0  0  0  0  0  0  0  0  0
   -4.6534    2.0392    0.2035 O   0  0  0  0  0  0  0  0  0  0  0  0
   -5.8605    0.6412    1.7168 C   0  0  1  0  0  0  0  0  0  0  0  0
   -6.7485    0.9187    2.8451 C   0  0  0  0  0  0  0  0  0  0  0  0
   -7.6468    2.0825    2.8614 C   0  0  0  0  0  0  0  0  0  0  0  0
   -8.6986    2.2488    1.8524 C   0  0  0  0  0  0  0  0  0  0  0  0
   -8.2764    2.4033    0.4911 N   0  0  0  0  0  0  0  0  0  0  0  0
   -9.3374    2.5613   -0.4729 C   0  0  0  0  0  0  0  0  0  0  0  0
  -10.5061    2.5418    0.0403 O   0  0  0  0  0  0  0  0  0  0  0  0
   -9.1056    2.7226   -1.8545 N   0  0  0  0  0  0  0  0  0  0  0  0
   -6.4183   -0.0622    0.6141 N   0  0  0  0  0  0  0  0  0  0  0  0
   -5.6438   -1.0765    0.0033 C   0  0  0  0  0  0  0  0  0  0  0  0
   -4.4776   -1.2700    0.4765 O   0  0  0  0  0  0  0  0  0  0  0  0
   -6.0215   -1.9552   -1.1249 C   0  0  1  0  0  0  0  0  0  0  0  0
   -6.4352   -1.3395   -2.3875 C   0  0  0  0  0  0  0  0  0  0  0  0
   -7.6446   -0.4584   -2.3597 C   0  0  0  0  0  0  0  0  0  0  0  0
   -5.2476   -0.5283   -2.9405 C   0  0  0  0  0  0  0  0  0  0  0  0
   -4.8262   -2.8122   -1.3353 N   0  0  0  0  0  0  0  0  0  0  0  0
   -4.5021   -3.7702   -0.3062 C   0  0  0  0  0  0  0  0  0  0  0  0
   -5.2551   -3.7804    0.6770 O   0  0  0  0  0  0  0  0  0  0  0  0
   -3.3207   -4.6084   -0.5432 C   0  0  0  0  0  0  0  0  0  0  0  0
   -2.7608   -5.1739    0.6994 C   0  0  0  0  0  0  0  0  0  0  0  0
   -3.6366   -6.0522    1.5224 C   0  0  0  0  0  0  0  0  0  0  0  0
   -2.7970   -6.4797    2.7226 C   0  0  0  0  0  0  0  0  0  0  0  0
   -3.5417   -7.3308    3.7013 C   0  0  0  0  0  0  0  0  0  0  0  0
   -4.6839   -6.6196    4.2459 N   0  0  0  0  0  0  0  0  0  0  0  0
   -4.6241   -5.7783    5.4094 C   0  0  0  0  0  0  0  0  0  0  0  0
   -3.5823   -5.5470    6.1048 O   0  0  0  0  0  0  0  0  0  0  0  0
   -5.9507   -5.2266    5.6706 C   0  0  0  0  0  0  0  0  0  0  0  0
   -6.7560   -5.7032    4.7281 C   0  0  0  0  0  0  0  0  0  0  0  0
   -6.0312   -6.5711    3.8185 C   0  0  0  0  0  0  0  0  0  0  0  0
   -6.5250   -7.1676    2.8323 O   0  0  0  0  0  0  0  0  0  0  0  0
    3.5251   -7.2440    0.3844 H   0  0  0  0  0  0  0  0  0  0  0  0
    4.9860   -6.8853    1.4908 H   0  0  0  0  0  0  0  0  0  0  0  0
    5.1259   -6.8505   -0.2841 H   0  0  0  0  0  0  0  0  0  0  0  0
    3.7711   -5.0350   -0.5705 H   0  0  0  0  0  0  0  0  0  0  0  0
    3.1914   -5.0771    1.1057 H   0  0  0  0  0  0  0  0  0  0  0  0
    6.1455   -4.8390    0.3997 H   0  0  0  0  0  0  0  0  0  0  0  0
    4.7351   -4.5421    3.0226 H   0  0  0  0  0  0  0  0  0  0  0  0
    6.3826   -3.8029    2.6377 H   0  0  0  0  0  0  0  0  0  0  0  0
    6.0874   -5.5499    2.5269 H   0  0  0  0  0  0  0  0  0  0  0  0
    6.3688   -2.5939    0.9110 H   0  0  0  0  0  0  0  0  0  0  0  0
    4.3377   -2.8083   -1.3793 H   0  0  0  0  0  0  0  0  0  0  0  0
    6.0874   -0.5576   -0.3560 H   0  0  0  0  0  0  0  0  0  0  0  0
    4.3471   -0.7140   -0.5170 H   0  0  0  0  0  0  0  0  0  0  0  0
    2.9551   -1.9552   -2.9383 H   0  0  0  0  0  0  0  0  0  0  0  0
    2.1733   -0.3501   -2.5422 H   0  0  0  0  0  0  0  0  0  0  0  0
    2.7401   -1.7454   -5.1529 H   0  0  0  0  0  0  0  0  0  0  0  0
    1.3396   -0.7565   -4.6941 H   0  0  0  0  0  0  0  0  0  0  0  0
    2.3619    1.2021   -5.5044 H   0  0  0  0  0  0  0  0  0  0  0  0
    3.4793    0.0631   -6.2331 H   0  0  0  0  0  0  0  0  0  0  0  0
    5.1497    0.5030   -4.8977 H   0  0  0  0  0  0  0  0  0  0  0  0
    4.3641    2.7271   -4.8570 H   0  0  0  0  0  0  0  0  0  0  0  0
    3.2064    2.3301   -2.0735 H   0  0  0  0  0  0  0  0  0  0  0  0
    4.8825    4.0822   -2.3316 H   0  0  0  0  0  0  0  0  0  0  0  0
    3.2408    4.6904   -2.0081 H   0  0  0  0  0  0  0  0  0  0  0  0
    3.9692    4.7859   -3.7153 H   0  0  0  0  0  0  0  0  0  0  0  0
    0.9061    1.2687   -3.5160 H   0  0  0  0  0  0  0  0  0  0  0  0
   -0.6601    3.7984   -4.0842 H   0  0  0  0  0  0  0  0  0  0  0  0
   -1.0725    1.2000   -2.6477 H   0  0  0  0  0  0  0  0  0  0  0  0
   -1.7297    2.8665   -2.3026 H   0  0  0  0  0  0  0  0  0  0  0  0
   -2.5124    1.8810   -3.5369 H   0  0  0  0  0  0  0  0  0  0  0  0
   -2.0315    2.4191   -5.5777 H   0  0  0  0  0  0  0  0  0  0  0  0
   -0.0891    4.7439   -5.7846 H   0  0  0  0  0  0  0  0  0  0  0  0
    1.3000    5.6766   -7.5284 H   0  0  0  0  0  0  0  0  0  0  0  0
    2.1087    4.2832   -9.3799 H   0  0  0  0  0  0  0  0  0  0  0  0
    1.4944    1.9042   -9.4372 H   0  0  0  0  0  0  0  0  0  0  0  0
    0.0852    0.9084   -7.6785 H   0  0  0  0  0  0  0  0  0  0  0  0
   -1.3808    0.3388   -6.0903 H   0  0  0  0  0  0  0  0  0  0  0  0
    7.4162    3.0387   -3.6493 H   0  0  0  0  0  0  0  0  0  0  0  0
    6.4940    2.3555   -5.0825 H   0  0  0  0  0  0  0  0  0  0  0  0
    6.0322    3.9201   -4.3616 H   0  0  0  0  0  0  0  0  0  0  0  0
    5.1239   -4.7843   -2.4789 H   0  0  0  0  0  0  0  0  0  0  0  0
    6.7907   -4.5129   -3.0138 H   0  0  0  0  0  0  0  0  0  0  0  0
    5.5329   -3.3999   -3.5089 H   0  0  0  0  0  0  0  0  0  0  0  0
    6.1096   -1.2424    2.2752 H   0  0  0  0  0  0  0  0  0  0  0  0
    4.8190   -0.0757    2.1452 H   0  0  0  0  0  0  0  0  0  0  0  0
    4.7673   -1.5033    3.3533 H   0  0  0  0  0  0  0  0  0  0  0  0
    1.6019   -0.4078    0.8290 H   0  0  0  0  0  0  0  0  0  0  0  0
    0.8754   -2.6541    2.7703 H   0  0  0  0  0  0  0  0  0  0  0  0
    0.1720   -3.5507    0.8244 H   0  0  0  0  0  0  0  0  0  0  0  0
   -1.0883   -2.3242    0.9267 H   0  0  0  0  0  0  0  0  0  0  0  0
    0.3644   -2.0337   -0.1025 H   0  0  0  0  0  0  0  0  0  0  0  0
   -1.1580   -1.3971    3.0221 H   0  0  0  0  0  0  0  0  0  0  0  0
    0.1271   -0.2438    3.4596 H   0  0  0  0  0  0  0  0  0  0  0  0
   -0.6387   -0.2025    1.7693 H   0  0  0  0  0  0  0  0  0  0  0  0
    2.6417   -0.4885    3.6195 H   0  0  0  0  0  0  0  0  0  0  0  0
    1.8259    2.3579    4.1700 H   0  0  0  0  0  0  0  0  0  0  0  0
    4.8681    2.2338    3.5900 H   0  0  0  0  0  0  0  0  0  0  0  0
    3.7058    4.4634    4.4042 H   0  0  0  0  0  0  0  0  0  0  0  0
    4.9741    3.7444    5.4626 H   0  0  0  0  0  0  0  0  0  0  0  0
    3.1786    3.4346    5.7775 H   0  0  0  0  0  0  0  0  0  0  0  0
    4.4106    0.2795    4.9568 H   0  0  0  0  0  0  0  0  0  0  0  0
    4.3205    1.5472    6.2132 H   0  0  0  0  0  0  0  0  0  0  0  0
    2.8340    0.9522    5.4803 H   0  0  0  0  0  0  0  0  0  0  0  0
    4.2151    4.6244    2.0416 H   0  0  0  0  0  0  0  0  0  0  0  0
    2.9290    4.6545    0.8357 H   0  0  0  0  0  0  0  0  0  0  0  0
    3.8669    3.0788    1.0981 H   0  0  0  0  0  0  0  0  0  0  0  0
   -0.0888    6.6777    3.6507 H   0  0  0  0  0  0  0  0  0  0  0  0
   -0.2341    7.1168    1.9061 H   0  0  0  0  0  0  0  0  0  0  0  0
   -1.5205    5.1621    4.6645 H   0  0  0  0  0  0  0  0  0  0  0  0
   -3.1964    3.5136    4.5524 H   0  0  0  0  0  0  0  0  0  0  0  0
   -3.0650    3.6161    0.2895 H   0  0  0  0  0  0  0  0  0  0  0  0
   -1.3293    5.2907    0.3947 H   0  0  0  0  0  0  0  0  0  0  0  0
   -4.5389    2.0435    3.4158 H   0  0  0  0  0  0  0  0  0  0  0  0
   -5.0763   -0.1305    2.1706 H   0  0  0  0  0  0  0  0  0  0  0  0
   -7.4028    0.0016    3.0390 H   0  0  0  0  0  0  0  0  0  0  0  0
   -6.1506    0.9670    3.8101 H   0  0  0  0  0  0  0  0  0  0  0  0
   -8.1652    2.0618    3.8819 H   0  0  0  0  0  0  0  0  0  0  0  0
   -7.0803    3.0612    2.9388 H   0  0  0  0  0  0  0  0  0  0  0  0
   -9.3749    3.1307    2.0853 H   0  0  0  0  0  0  0  0  0  0  0  0
   -9.4400    1.3975    1.8378 H   0  0  0  0  0  0  0  0  0  0  0  0
   -7.3272    2.4314    0.1189 H   0  0  0  0  0  0  0  0  0  0  0  0
   -9.5312    1.9922   -2.4886 H   0  0  0  0  0  0  0  0  0  0  0  0
   -8.5498    3.5154   -2.2035 H   0  0  0  0  0  0  0  0  0  0  0  0
   -7.3698    0.1009    0.2254 H   0  0  0  0  0  0  0  0  0  0  0  0
   -6.8220   -2.6677   -0.7465 H   0  0  0  0  0  0  0  0  0  0  0  0
   -6.6330   -2.1006   -3.1991 H   0  0  0  0  0  0  0  0  0  0  0  0
   -7.3456    0.5717   -2.0707 H   0  0  0  0  0  0  0  0  0  0  0  0
   -8.3834   -0.8612   -1.6711 H   0  0  0  0  0  0  0  0  0  0  0  0
   -8.0739   -0.4262   -3.4048 H   0  0  0  0  0  0  0  0  0  0  0  0
   -4.6109   -1.2131   -3.5184 H   0  0  0  0  0  0  0  0  0  0  0  0
   -4.7143   -0.0439   -2.0884 H   0  0  0  0  0  0  0  0  0  0  0  0
   -5.6301    0.2455   -3.6306 H   0  0  0  0  0  0  0  0  0  0  0  0
   -4.2448   -2.7192   -2.1965 H   0  0  0  0  0  0  0  0  0  0  0  0
   -3.6508   -5.4113   -1.2697 H   0  0  0  0  0  0  0  0  0  0  0  0
   -2.5056   -4.0564   -1.0733 H   0  0  0  0  0  0  0  0  0  0  0  0
   -2.4756   -4.2956    1.3580 H   0  0  0  0  0  0  0  0  0  0  0  0
   -1.7621   -5.6613    0.5108 H   0  0  0  0  0  0  0  0  0  0  0  0
   -3.9556   -6.9757    0.9898 H   0  0  0  0  0  0  0  0  0  0  0  0
   -4.5336   -5.5346    1.8467 H   0  0  0  0  0  0  0  0  0  0  0  0
   -2.4755   -5.5382    3.2334 H   0  0  0  0  0  0  0  0  0  0  0  0
   -1.8821   -6.9781    2.3472 H   0  0  0  0  0  0  0  0  0  0  0  0
   -3.8291   -8.2805    3.2135 H   0  0  0  0  0  0  0  0  0  0  0  0
   -2.8198   -7.6046    4.5042 H   0  0  0  0  0  0  0  0  0  0  0  0
   -6.1613   -4.5597    6.4951 H   0  0  0  0  0  0  0  0  0  0  0  0
   -7.8066   -5.4470    4.6823 H   0  0  0  0  0  0  0  0  0  0  0  0
  1  2  1  0
  2  3  1  0
  3  4  1  0
  3  5  1  0
  5  6  1  0
  6  7  1  0
  7  8  1  0
  8  9  2  0
  8 10  1  0
 10 11  1  0
 11 12  1  0
 12 13  1  0
 13 14  1  0
 14 15  1  0
 15 16  1  0
 16 17  1  0
 16 18  1  0
 18 19  2  0
 18 20  1  0
 20 21  1  0
 21 22  1  0
 21 23  1  0
 23 24  1  0
 24 25  2  0
 25 26  1  0
 26 27  2  0
 27 28  1  0
 28 29  2  0
 23 30  1  0
 15 31  1  0
 31 32  1  0
  6 33  1  0
 33 34  1  0
  5 35  1  0
 35 36  1  0
 35 37  1  0
 37 38  2  0
 37 39  1  0
 39 40  1  0
 40 41  1  0
 40 42  1  0
 39 43  1  0
 43 44  1  0
 44 45  2  0
 44 46  1  0
 46 47  1  0
 47 48  1  0
 47 49  1  0
 46 50  1  0
 50 51  1  0
 50 52  1  0
 52 53  2  0
 52 54  1  0
 54 55  1  0
 55 56  1  0
 56 57  1  0
 57 58  2  0
 58 59  1  0
 59 60  2  0
 60 61  1  0
 59 62  1  0
 62 63  1  0
 63 64  2  0
 63 65  1  0
 65 66  1  0
 66 67  1  0
 67 68  1  0
 68 69  1  0
 69 70  1  0
 70 71  2  0
 70 72  1  0
 65 73  1  0
 73 74  1  0
 74 75  2  0
 74 76  1  0
 76 77  1  0
 77 78  1  0
 77 79  1  0
 76 80  1  0
 80 81  1  0
 81 82  2  0
 81 83  1  0
 83 84  1  0
 84 85  1  0
 85 86  1  0
 86 87  1  0
 87 88  1  0
 88 89  1  0
 89 90  2  0
 89 91  1  0
 91 92  2  0
 92 93  1  0
 93 94  2  0
 14 10  1  0
 29 24  1  0
 61 56  2  0
 93 88  1  0
  1 95  1  0
  1 96  1  0
  1 97  1  0
  2 98  1  0
  2 99  1  0
  3100  1  6
  4101  1  0
  4102  1  0
  4103  1  0
  5104  1  1
  6105  1  6
  7106  1  0
  7107  1  0
 11108  1  0
 11109  1  0
 12110  1  0
 12111  1  0
 13112  1  0
 13113  1  0
 14114  1  6
 15115  1  6
 16116  1  1
 17117  1  0
 17118  1  0
 17119  1  0
 20120  1  0
 21121  1  6
 22122  1  0
 22123  1  0
 22124  1  0
 23125  1  6
 25126  1  0
 26127  1  0
 27128  1  0
 28129  1  0
 29130  1  0
 30131  1  0
 32132  1  0
 32133  1  0
 32134  1  0
 34135  1  0
 34136  1  0
 34137  1  0
 36138  1  0
 36139  1  0
 36140  1  0
 39141  1  6
 40142  1  0
 41143  1  0
 41144  1  0
 41145  1  0
 42146  1  0
 42147  1  0
 42148  1  0
 43149  1  0
 46150  1  1
 47151  1  0
 48152  1  0
 48153  1  0
 48154  1  0
 49155  1  0
 49156  1  0
 49157  1  0
 51158  1  0
 51159  1  0
 51160  1  0
 55161  1  0
 55162  1  0
 57163  1  0
 58164  1  0
 60165  1  0
 61166  1  0
 62167  1  0
 65168  1  1
 66169  1  0
 66170  1  0
 67171  1  0
 67172  1  0
 68173  1  0
 68174  1  0
 69175  1  0
 72176  1  0
 72177  1  0
 73178  1  0
 76179  1  1
 77180  1  0
 78181  1  0
 78182  1  0
 78183  1  0
 79184  1  0
 79185  1  0
 79186  1  0
 80187  1  0
 83188  1  0
 83189  1  0
 84190  1  0
 84191  1  0
 85192  1  0
 85193  1  0
 86194  1  0
 86195  1  0
 87196  1  0
 87197  1  0
 91198  1  0
 92199  1  0
M  END
$$$$

     RDKit          3D

199202  0  0  0  0  0  0  0  0999 V2000
    6.1464   -2.3617    1.5425 C   0  0  0  0  0  0  0  0  0  0  0  0
    6.6971   -2.1431    0.2047 C   0  0  0  0  0  0  0  0  0  0  0  0
    6.1203   -1.1290   -0.7203 C   0  0  2  0  0  0  0  0  0  0  0  0
    6.9879   -1.2516   -1.9818 C   0  0  0  0  0  0  0  0  0  0  0  0
    5.9813    0.2667   -0.2693 C   0  0  1  0  0  0  0  0  0  0  0  0
    5.4446    1.2121   -1.3328 C   0  0  1  0  0  0  0  0  0  0  0  0
    3.9103    1.3236   -1.4056 C   0  0  0  0  0  0  0  0  0  0  0  0
    3.6868    2.1700   -2.6022 C   0  0  0  0  0  0  0  0  0  0  0  0
    4.5083    1.8282   -3.5817 O   0  0  0  0  0  0  0  0  0  0  0  0
    2.8457    3.1983   -2.9240 N   0  0  0  0  0  0  0  0  0  0  0  0
    2.9026    3.7370   -4.3390 C   0  0  0  0  0  0  0  0  0  0  0  0
    2.7656    5.2040   -4.1445 C   0  0  0  0  0  0  0  0  0  0  0  0
    1.5928    5.2172   -3.1457 C   0  0  0  0  0  0  0  0  0  0  0  0
    1.8484    4.0272   -2.2824 C   0  0  1  0  0  0  0  0  0  0  0  0
    0.5644    3.3011   -1.9989 C   0  0  1  0  0  0  0  0  0  0  0  0
   -0.5311    4.2546   -1.6349 C   0  0  1  0  0  0  0  0  0  0  0  0
   -1.7998    3.4497   -1.3202 C   0  0  0  0  0  0  0  0  0  0  0  0
   -0.2293    5.2485   -0.6192 C   0  0  0  0  0  0  0  0  0  0  0  0
   -0.3759    6.4955   -0.9047 O   0  0  0  0  0  0  0  0  0  0  0  0
    0.2249    5.0018    0.7059 N   0  0  0  0  0  0  0  0  0  0  0  0
    0.4762    6.1138    1.5959 C   0  0  2  0  0  0  0  0  0  0  0  0
    1.9911    6.2691    1.7142 C   0  0  0  0  0  0  0  0  0  0  0  0
   -0.0761    5.7864    2.9555 C   0  0  1  0  0  0  0  0  0  0  0  0
   -1.5130    5.5103    2.9059 C   0  0  0  0  0  0  0  0  0  0  0  0
   -2.3949    5.9892    1.9722 C   0  0  0  0  0  0  0  0  0  0  0  0
   -3.7419    5.7037    1.9510 C   0  0  0  0  0  0  0  0  0  0  0  0
   -4.2515    4.8803    2.9318 C   0  0  0  0  0  0  0  0  0  0  0  0
   -3.3991    4.3760    3.8941 C   0  0  0  0  0  0  0  0  0  0  0  0
   -2.0327    4.6749    3.9032 C   0  0  0  0  0  0  0  0  0  0  0  0
    0.5839    4.6035    3.3568 O   0  0  0  0  0  0  0  0  0  0  0  0
    0.1386    2.7935   -3.2838 O   0  0  0  0  0  0  0  0  0  0  0  0
    0.0921    1.4016   -3.1738 C   0  0  0  0  0  0  0  0  0  0  0  0
    5.9880    2.4302   -1.2188 O   0  0  0  0  0  0  0  0  0  0  0  0
    6.6194    3.2824   -1.9007 C   0  0  0  0  0  0  0  0  0  0  0  0
    5.6738    0.5412    1.0873 N   0  0  0  0  0  0  0  0  0  0  0  0
    6.6303    1.2337    1.9758 C   0  0  0  0  0  0  0  0  0  0  0  0
    4.4437    0.1356    1.6220 C   0  0  0  0  0  0  0  0  0  0  0  0
    3.5735   -0.5003    0.9316 O   0  0  0  0  0  0  0  0  0  0  0  0
    4.0045    0.3805    3.0464 C   0  0  1  0  0  0  0  0  0  0  0  0
    3.3895    1.7038    3.2823 C   0  0  0  0  0  0  0  0  0  0  0  0
    2.1514    1.9417    2.4407 C   0  0  0  0  0  0  0  0  0  0  0  0
    4.2568    2.9014    3.1997 C   0  0  0  0  0  0  0  0  0  0  0  0
    2.8871   -0.5886    3.1956 N   0  0  0  0  0  0  0  0  0  0  0  0
    3.2419   -1.8031    3.8355 C   0  0  0  0  0  0  0  0  0  0  0  0
    4.4331   -1.9172    4.2164 O   0  0  0  0  0  0  0  0  0  0  0  0
    2.3301   -2.9362    4.0756 C   0  0  1  0  0  0  0  0  0  0  0  0
    2.9760   -3.9516    4.9639 C   0  0  0  0  0  0  0  0  0  0  0  0
    2.0496   -5.1313    5.2336 C   0  0  0  0  0  0  0  0  0  0  0  0
    4.1874   -4.5144    4.2285 C   0  0  0  0  0  0  0  0  0  0  0  0
    0.9894   -2.5898    4.3817 N   0  0  0  0  0  0  0  0  0  0  0  0
   -0.0797   -2.8704    3.4396 C   0  0  0  0  0  0  0  0  0  0  0  0
    0.7496   -1.9380    5.6542 C   0  0  0  0  0  0  0  0  0  0  0  0
    1.8580   -1.6774    6.2771 O   0  0  0  0  0  0  0  0  0  0  0  0
   -0.3496   -1.6070    6.2262 O   0  0  0  0  0  0  0  0  0  0  0  0
   -1.4773   -1.2571    6.8343 C   0  0  0  0  0  0  0  0  0  0  0  0
   -2.6502   -1.6347    5.9246 C   0  0  0  0  0  0  0  0  0  0  0  0
   -2.9826   -2.9721    5.9677 C   0  0  0  0  0  0  0  0  0  0  0  0
   -3.9770   -3.4053    5.1467 C   0  0  0  0  0  0  0  0  0  0  0  0
   -4.5915   -2.4876    4.3248 C   0  0  0  0  0  0  0  0  0  0  0  0
   -4.2645   -1.1498    4.2828 C   0  0  0  0  0  0  0  0  0  0  0  0
   -3.2477   -0.7049    5.1204 C   0  0  0  0  0  0  0  0  0  0  0  0
   -5.5506   -2.9401    3.3231 N   0  0  0  0  0  0  0  0  0  0  0  0
   -5.0309   -2.9352    2.0312 C   0  0  0  0  0  0  0  0  0  0  0  0
   -3.8135   -2.5171    1.9224 O   0  0  0  0  0  0  0  0  0  0  0  0
   -5.6559   -3.3332    0.7555 C   0  0  1  0  0  0  0  0  0  0  0  0
   -7.1084   -3.3258    0.6590 C   0  0  0  0  0  0  0  0  0  0  0  0
   -7.8836   -2.0978    0.9368 C   0  0  0  0  0  0  0  0  0  0  0  0
   -7.6066   -0.8716    0.1424 C   0  0  0  0  0  0  0  0  0  0  0  0
   -8.5058    0.2261    0.5356 N   0  0  0  0  0  0  0  0  0  0  0  0
   -9.9189    0.1331    0.4110 C   0  0  0  0  0  0  0  0  0  0  0  0
  -10.5132   -0.8675   -0.0381 O   0  0  0  0  0  0  0  0  0  0  0  0
  -10.7736    1.2277    0.8096 N   0  0  0  0  0  0  0  0  0  0  0  0
   -4.8470   -2.7648   -0.2901 N   0  0  0  0  0  0  0  0  0  0  0  0
   -3.6823   -3.3385   -0.8392 C   0  0  0  0  0  0  0  0  0  0  0  0
   -3.3153   -4.4806   -0.3893 O   0  0  0  0  0  0  0  0  0  0  0  0
   -2.8639   -2.7285   -1.8723 C   0  0  1  0  0  0  0  0  0  0  0  0
   -2.1230   -1.4631   -1.3846 C   0  0  0  0  0  0  0  0  0  0  0  0
   -3.0418   -0.3919   -0.9208 C   0  0  0  0  0  0  0  0  0  0  0  0
   -1.1710   -1.8423   -0.2802 C   0  0  0  0  0  0  0  0  0  0  0  0
   -1.7428   -3.6219   -2.2447 N   0  0  0  0  0  0  0  0  0  0  0  0
   -1.2295   -3.4317   -3.5384 C   0  0  0  0  0  0  0  0  0  0  0  0
   -1.7606   -2.5436   -4.2549 O   0  0  0  0  0  0  0  0  0  0  0  0
   -0.0956   -4.1904   -4.1371 C   0  0  0  0  0  0  0  0  0  0  0  0
    0.1997   -3.4491   -5.4443 C   0  0  0  0  0  0  0  0  0  0  0  0
    1.3515   -4.1089   -6.1312 C   0  0  0  0  0  0  0  0  0  0  0  0
    1.6231   -3.3267   -7.4193 C   0  0  0  0  0  0  0  0  0  0  0  0
    2.7792   -3.9304   -8.1388 C   0  0  0  0  0  0  0  0  0  0  0  0
    2.5307   -5.3064   -8.4847 N   0  0  0  0  0  0  0  0  0  0  0  0
    2.8678   -6.4155   -7.6780 C   0  0  0  0  0  0  0  0  0  0  0  0
    3.4287   -6.4641   -6.5488 O   0  0  0  0  0  0  0  0  0  0  0  0
    2.4160   -7.5918   -8.4422 C   0  0  0  0  0  0  0  0  0  0  0  0
    1.8663   -7.2017   -9.5873 C   0  0  0  0  0  0  0  0  0  0  0  0
    1.8983   -5.7433   -9.6970 C   0  0  0  0  0  0  0  0  0  0  0  0
    1.4665   -5.0228  -10.6488 O   0  0  0  0  0  0  0  0  0  0  0  0
    6.4857   -1.6541    2.3510 H   0  0  0  0  0  0  0  0  0  0  0  0
    5.0799   -2.6354    1.6208 H   0  0  0  0  0  0  0  0  0  0  0  0
    6.6505   -3.3338    1.9135 H   0  0  0  0  0  0  0  0  0  0  0  0
    7.7952   -1.8480    0.3607 H   0  0  0  0  0  0  0  0  0  0  0  0
    6.7058   -3.1599   -0.3177 H   0  0  0  0  0  0  0  0  0  0  0  0
    5.1046   -1.4558   -1.1132 H   0  0  0  0  0  0  0  0  0  0  0  0
    6.4332   -0.9732   -2.8989 H   0  0  0  0  0  0  0  0  0  0  0  0
    7.1670   -2.3423   -2.1029 H   0  0  0  0  0  0  0  0  0  0  0  0
    7.9748   -0.7875   -1.8630 H   0  0  0  0  0  0  0  0  0  0  0  0
    7.1128    0.6313   -0.3335 H   0  0  0  0  0  0  0  0  0  0  0  0
    5.6808    0.7987   -2.3089 H   0  0  0  0  0  0  0  0  0  0  0  0
    3.4460    1.7223   -0.5208 H   0  0  0  0  0  0  0  0  0  0  0  0
    3.5428    0.3183   -1.6425 H   0  0  0  0  0  0  0  0  0  0  0  0
    3.8656    3.5327   -4.8001 H   0  0  0  0  0  0  0  0  0  0  0  0
    2.0795    3.3310   -4.9197 H   0  0  0  0  0  0  0  0  0  0  0  0
    3.6310    5.6863   -3.6841 H   0  0  0  0  0  0  0  0  0  0  0  0
    2.5145    5.7619   -5.0518 H   0  0  0  0  0  0  0  0  0  0  0  0
    1.5838    6.1897   -2.6355 H   0  0  0  0  0  0  0  0  0  0  0  0
    0.6965    5.1462   -3.7920 H   0  0  0  0  0  0  0  0  0  0  0  0
    2.2459    4.4057   -1.2911 H   0  0  0  0  0  0  0  0  0  0  0  0
    0.7276    2.4909   -1.2946 H   0  0  0  0  0  0  0  0  0  0  0  0
   -0.8574    4.8350   -2.5710 H   0  0  0  0  0  0  0  0  0  0  0  0
   -2.5623    4.2186   -1.0268 H   0  0  0  0  0  0  0  0  0  0  0  0
   -1.5960    2.7438   -0.4969 H   0  0  0  0  0  0  0  0  0  0  0  0
   -2.1888    2.9548   -2.2321 H   0  0  0  0  0  0  0  0  0  0  0  0
    0.3525    4.0043    0.9699 H   0  0  0  0  0  0  0  0  0  0  0  0
    0.0546    7.0469    1.1492 H   0  0  0  0  0  0  0  0  0  0  0  0
    2.3766    6.8163    0.8123 H   0  0  0  0  0  0  0  0  0  0  0  0
    2.4267    5.2600    1.7342 H   0  0  0  0  0  0  0  0  0  0  0  0
    2.2399    6.9030    2.5860 H   0  0  0  0  0  0  0  0  0  0  0  0
    0.1739    6.6093    3.6797 H   0  0  0  0  0  0  0  0  0  0  0  0
   -2.0154    6.6427    1.2094 H   0  0  0  0  0  0  0  0  0  0  0  0
   -4.3608    6.1369    1.1643 H   0  0  0  0  0  0  0  0  0  0  0  0
   -5.3220    4.6401    2.9375 H   0  0  0  0  0  0  0  0  0  0  0  0
   -3.8348    3.7207    4.6605 H   0  0  0  0  0  0  0  0  0  0  0  0
   -1.4203    4.2583    4.6736 H   0  0  0  0  0  0  0  0  0  0  0  0
    1.4713    4.8317    3.6976 H   0  0  0  0  0  0  0  0  0  0  0  0
    1.0766    0.9708   -2.9081 H   0  0  0  0  0  0  0  0  0  0  0  0
   -0.2890    0.9628   -4.1134 H   0  0  0  0  0  0  0  0  0  0  0  0
   -0.6123    1.1545   -2.3763 H   0  0  0  0  0  0  0  0  0  0  0  0
    6.2189    3.7372   -2.8324 H   0  0  0  0  0  0  0  0  0  0  0  0
    7.6926    3.0185   -2.2057 H   0  0  0  0  0  0  0  0  0  0  0  0
    6.8320    4.2188   -1.2678 H   0  0  0  0  0  0  0  0  0  0  0  0
    6.6797    2.2970    1.7626 H   0  0  0  0  0  0  0  0  0  0  0  0
    7.6600    0.7919    1.7946 H   0  0  0  0  0  0  0  0  0  0  0  0
    6.4486    1.0318    3.0414 H   0  0  0  0  0  0  0  0  0  0  0  0
    4.7963    0.1743    3.7512 H   0  0  0  0  0  0  0  0  0  0  0  0
    2.9962    1.6939    4.3478 H   0  0  0  0  0  0  0  0  0  0  0  0
    2.2178    2.9216    1.9246 H   0  0  0  0  0  0  0  0  0  0  0  0
    1.2183    1.9519    3.0339 H   0  0  0  0  0  0  0  0  0  0  0  0
    2.1497    1.1833    1.6354 H   0  0  0  0  0  0  0  0  0  0  0  0
    4.5090    3.2518    2.1773 H   0  0  0  0  0  0  0  0  0  0  0  0
    5.1026    2.7997    3.8817 H   0  0  0  0  0  0  0  0  0  0  0  0
    3.6413    3.7504    3.6378 H   0  0  0  0  0  0  0  0  0  0  0  0
    1.9307   -0.4012    2.8696 H   0  0  0  0  0  0  0  0  0  0  0  0
    2.2676   -3.5012    3.0441 H   0  0  0  0  0  0  0  0  0  0  0  0
    3.2592   -3.4932    5.9145 H   0  0  0  0  0  0  0  0  0  0  0  0
    1.4277   -5.3386    4.3262 H   0  0  0  0  0  0  0  0  0  0  0  0
    1.4934   -5.0588    6.1691 H   0  0  0  0  0  0  0  0  0  0  0  0
    2.6948   -6.0456    5.3355 H   0  0  0  0  0  0  0  0  0  0  0  0
    4.2376   -5.5961    4.4675 H   0  0  0  0  0  0  0  0  0  0  0  0
    4.0232   -4.4034    3.1515 H   0  0  0  0  0  0  0  0  0  0  0  0
    5.1383   -4.0945    4.6067 H   0  0  0  0  0  0  0  0  0  0  0  0
    0.2936   -3.0063    2.4294 H   0  0  0  0  0  0  0  0  0  0  0  0
   -0.6306   -3.8029    3.7200 H   0  0  0  0  0  0  0  0  0  0  0  0
   -0.8435   -2.0659    3.5311 H   0  0  0  0  0  0  0  0  0  0  0  0
   -1.5800   -0.1628    7.0895 H   0  0  0  0  0  0  0  0  0  0  0  0
   -1.7038   -1.7761    7.7952 H   0  0  0  0  0  0  0  0  0  0  0  0
   -2.5084   -3.6974    6.6113 H   0  0  0  0  0  0  0  0  0  0  0  0
   -4.2930   -4.4567    5.1269 H   0  0  0  0  0  0  0  0  0  0  0  0
   -4.7655   -0.4327    3.6285 H   0  0  0  0  0  0  0  0  0  0  0  0
   -2.9474    0.3290    5.1207 H   0  0  0  0  0  0  0  0  0  0  0  0
   -6.5060   -3.2377    3.5301 H   0  0  0  0  0  0  0  0  0  0  0  0
   -5.3784   -4.4890    0.6397 H   0  0  0  0  0  0  0  0  0  0  0  0
   -7.5325   -4.1581    1.2930 H   0  0  0  0  0  0  0  0  0  0  0  0
   -7.4404   -3.6619   -0.3892 H   0  0  0  0  0  0  0  0  0  0  0  0
   -8.9678   -2.3741    0.7143 H   0  0  0  0  0  0  0  0  0  0  0  0
   -7.9332   -1.8641    2.0412 H   0  0  0  0  0  0  0  0  0  0  0  0
   -6.5934   -0.4665    0.4173 H   0  0  0  0  0  0  0  0  0  0  0  0
   -7.6602   -0.9968   -0.9378 H   0  0  0  0  0  0  0  0  0  0  0  0
   -8.1419    1.1272    0.9250 H   0  0  0  0  0  0  0  0  0  0  0  0
  -10.7720    1.5688    1.7970 H   0  0  0  0  0  0  0  0  0  0  0  0
  -11.3773    1.6413    0.0533 H   0  0  0  0  0  0  0  0  0  0  0  0
   -5.1629   -1.8609   -0.6956 H   0  0  0  0  0  0  0  0  0  0  0  0
   -3.4062   -2.3659   -2.7600 H   0  0  0  0  0  0  0  0  0  0  0  0
   -1.5084   -1.0806   -2.2329 H   0  0  0  0  0  0  0  0  0  0  0  0
   -2.4128    0.5597   -0.9150 H   0  0  0  0  0  0  0  0  0  0  0  0
   -3.8736   -0.1648   -1.6205 H   0  0  0  0  0  0  0  0  0  0  0  0
   -3.4232   -0.5152    0.1115 H   0  0  0  0  0  0  0  0  0  0  0  0
   -0.8872   -0.9734    0.3540 H   0  0  0  0  0  0  0  0  0  0  0  0
   -0.2240   -2.2416   -0.6821 H   0  0  0  0  0  0  0  0  0  0  0  0
   -1.6306   -2.6720    0.2912 H   0  0  0  0  0  0  0  0  0  0  0  0
   -1.3513   -4.3290   -1.6224 H   0  0  0  0  0  0  0  0  0  0  0  0
   -0.3787   -5.2417   -4.3538 H   0  0  0  0  0  0  0  0  0  0  0  0
    0.7462   -4.1095   -3.4221 H   0  0  0  0  0  0  0  0  0  0  0  0
    0.4615   -2.3877   -5.1627 H   0  0  0  0  0  0  0  0  0  0  0  0
   -0.7140   -3.4431   -6.0462 H   0  0  0  0  0  0  0  0  0  0  0  0
    1.0311   -5.1323   -6.3981 H   0  0  0  0  0  0  0  0  0  0  0  0
    2.2328   -4.0667   -5.4900 H   0  0  0  0  0  0  0  0  0  0  0  0
    0.7254   -3.3087   -8.0619 H   0  0  0  0  0  0  0  0  0  0  0  0
    1.8327   -2.2796   -7.0985 H   0  0  0  0  0  0  0  0  0  0  0  0
    3.6987   -3.8796   -7.4810 H   0  0  0  0  0  0  0  0  0  0  0  0
    2.9940   -3.3263   -9.0538 H   0  0  0  0  0  0  0  0  0  0  0  0
    2.5357   -8.5976   -8.0717 H   0  0  0  0  0  0  0  0  0  0  0  0
    1.4452   -7.8430  -10.3592 H   0  0  0  0  0  0  0  0  0  0  0  0
  1  2  1  0
  2  3  1  0
  3  4  1  0
  3  5  1  0
  5  6  1  0
  6  7  1  0
  7  8  1  0
  8  9  2  0
  8 10  1  0
 10 11  1  0
 11 12  1  0
 12 13  1  0
 13 14  1  0
 14 15  1  0
 15 16  1  0
 16 17  1  0
 16 18  1  0
 18 19  2  0
 18 20  1  0
 20 21  1  0
 21 22  1  0
 21 23  1  0
 23 24  1  0
 24 25  2  0
 25 26  1  0
 26 27  2  0
 27 28  1  0
 28 29  2  0
 23 30  1  0
 15 31  1  0
 31 32  1  0
  6 33  1  0
 33 34  1  0
  5 35  1  0
 35 36  1  0
 35 37  1  0
 37 38  2  0
 37 39  1  0
 39 40  1  0
 40 41  1  0
 40 42  1  0
 39 43  1  0
 43 44  1  0
 44 45  2  0
 44 46  1  0
 46 47  1  0
 47 48  1  0
 47 49  1  0
 46 50  1  0
 50 51  1  0
 50 52  1  0
 52 53  2  0
 52 54  1  0
 54 55  1  0
 55 56  1  0
 56 57  1  0
 57 58  2  0
 58 59  1  0
 59 60  2  0
 60 61  1  0
 59 62  1  0
 62 63  1  0
 63 64  2  0
 63 65  1  0
 65 66  1  0
 66 67  1  0
 67 68  1  0
 68 69  1  0
 69 70  1  0
 70 71  2  0
 70 72  1  0
 65 73  1  0
 73 74  1  0
 74 75  2  0
 74 76  1  0
 76 77  1  0
 77 78  1  0
 77 79  1  0
 76 80  1  0
 80 81  1  0
 81 82  2  0
 81 83  1  0
 83 84  1  0
 84 85  1  0
 85 86  1  0
 86 87  1  0
 87 88  1  0
 88 89  1  0
 89 90  2  0
 89 91  1  0
 91 92  2  0
 92 93  1  0
 93 94  2  0
 14 10  1  0
 29 24  1  0
 61 56  2  0
 93 88  1  0
  1 95  1  0
  1 96  1  0
  1 97  1  0
  2 98  1  0
  2 99  1  0
  3100  1  6
  4101  1  0
  4102  1  0
  4103  1  0
  5104  1  1
  6105  1  6
  7106  1  0
  7107  1  0
 11108  1  0
 11109  1  0
 12110  1  0
 12111  1  0
 13112  1  0
 13113  1  0
 14114  1  1
 15115  1  1
 16116  1  6
 17117  1  0
 17118  1  0
 17119  1  0
 20120  1  0
 21121  1  6
 22122  1  0
 22123  1  0
 22124  1  0
 23125  1  1
 25126  1  0
 26127  1  0
 27128  1  0
 28129  1  0
 29130  1  0
 30131  1  0
 32132  1  0
 32133  1  0
 32134  1  0
 34135  1  0
 34136  1  0
 34137  1  0
 36138  1  0
 36139  1  0
 36140  1  0
 39141  1  1
 40142  1  0
 41143  1  0
 41144  1  0
 41145  1  0
 42146  1  0
 42147  1  0
 42148  1  0
 43149  1  0
 46150  1  6
 47151  1  0
 48152  1  0
 48153  1  0
 48154  1  0
 49155  1  0
 49156  1  0
 49157  1  0
 51158  1  0
 51159  1  0
 51160  1  0
 55161  1  0
 55162  1  0
 57163  1  0
 58164  1  0
 60165  1  0
 61166  1  0
 62167  1  0
 65168  1  6
 66169  1  0
 66170  1  0
 67171  1  0
 67172  1  0
 68173  1  0
 68174  1  0
 69175  1  0
 72176  1  0
 72177  1  0
 73178  1  0
 76179  1  6
 77180  1  0
 78181  1  0
 78182  1  0
 78183  1  0
 79184  1  0
 79185  1  0
 79186  1  0
 80187  1  0
 83188  1  0
 83189  1  0
 84190  1  0
 84191  1  0
 85192  1  0
 85193  1  0
 86194  1  0
 86195  1  0
 87196  1  0
 87197  1  0
 91198  1  0
 92199  1  0
M  END
$$$$

     RDKit          3D

199202  0  0  0  0  0  0  0  0999 V2000
    0.5948   -3.4789   -7.2312 C   0  0  0  0  0  0  0  0  0  0  0  0
   -0.0397   -4.7632   -6.8631 C   0  0  0  0  0  0  0  0  0  0  0  0
   -0.7101   -4.8818   -5.5350 C   0  0  2  0  0  0  0  0  0  0  0  0
   -1.2450   -6.3156   -5.4835 C   0  0  0  0  0  0  0  0  0  0  0  0
   -1.6735   -3.8881   -5.1016 C   0  0  1  0  0  0  0  0  0  0  0  0
   -2.3243   -4.2115   -3.7155 C   0  0  1  0  0  0  0  0  0  0  0  0
   -1.4689   -4.0362   -2.5544 C   0  0  0  0  0  0  0  0  0  0  0  0
   -2.1484   -4.3545   -1.2378 C   0  0  0  0  0  0  0  0  0  0  0  0
   -3.3759   -4.5294   -1.1247 O   0  0  0  0  0  0  0  0  0  0  0  0
   -1.2898   -4.4403   -0.1133 N   0  0  0  0  0  0  0  0  0  0  0  0
    0.1757   -4.3748   -0.0536 C   0  0  0  0  0  0  0  0  0  0  0  0
    0.4953   -5.4411    1.0050 C   0  0  0  0  0  0  0  0  0  0  0  0
   -0.8419   -5.8358    1.6161 C   0  0  0  0  0  0  0  0  0  0  0  0
   -1.6599   -4.6008    1.3094 C   0  0  1  0  0  0  0  0  0  0  0  0
   -1.1475   -3.4660    2.1314 C   0  0  1  0  0  0  0  0  0  0  0  0
   -1.8542   -2.1534    1.9854 C   0  0  1  0  0  0  0  0  0  0  0  0
   -1.9315   -1.5658    0.6342 C   0  0  0  0  0  0  0  0  0  0  0  0
   -3.0440   -1.9785    2.8410 C   0  0  0  0  0  0  0  0  0  0  0  0
   -3.4514   -2.8512    3.6666 O   0  0  0  0  0  0  0  0  0  0  0  0
   -3.7586   -0.7707    2.7329 N   0  0  0  0  0  0  0  0  0  0  0  0
   -4.9304   -0.4206    3.5158 C   0  0  2  0  0  0  0  0  0  0  0  0
   -6.1866   -0.4707    2.6471 C   0  0  0  0  0  0  0  0  0  0  0  0
   -4.8403    0.9701    4.0540 C   0  0  1  0  0  0  0  0  0  0  0  0
   -6.0418    1.2449    4.8891 C   0  0  0  0  0  0  0  0  0  0  0  0
   -6.0304    0.7687    6.2013 C   0  0  0  0  0  0  0  0  0  0  0  0
   -7.1061    0.9921    7.0578 C   0  0  0  0  0  0  0  0  0  0  0  0
   -8.2085    1.7097    6.5683 C   0  0  0  0  0  0  0  0  0  0  0  0
   -8.2023    2.1716    5.2664 C   0  0  0  0  0  0  0  0  0  0  0  0
   -7.1301    1.9543    4.4001 C   0  0  0  0  0  0  0  0  0  0  0  0
   -3.7311    1.1964    4.8767 O   0  0  0  0  0  0  0  0  0  0  0  0
   -1.5317   -3.8564    3.4720 O   0  0  0  0  0  0  0  0  0  0  0  0
   -0.4606   -3.9512    4.3119 C   0  0  0  0  0  0  0  0  0  0  0  0
   -3.3962   -3.3244   -3.6962 O   0  0  0  0  0  0  0  0  0  0  0  0
   -4.6168   -3.8664   -3.9801 C   0  0  0  0  0  0  0  0  0  0  0  0
   -1.3125   -2.4881   -5.0886 N   0  0  0  0  0  0  0  0  0  0  0  0
   -2.2495   -1.5450   -5.7399 C   0  0  0  0  0  0  0  0  0  0  0  0
   -0.1558   -1.9450   -4.5023 C   0  0  0  0  0  0  0  0  0  0  0  0
    0.7359   -2.7966   -4.0907 O   0  0  0  0  0  0  0  0  0  0  0  0
    0.2044   -0.5466   -4.2717 C   0  0  1  0  0  0  0  0  0  0  0  0
    1.6167   -0.2373   -4.7563 C   0  0  0  0  0  0  0  0  0  0  0  0
    2.6117   -1.0894   -4.0424 C   0  0  0  0  0  0  0  0  0  0  0  0
    1.8005   -0.3449   -6.2276 C   0  0  0  0  0  0  0  0  0  0  0  0
   -0.7011    0.4977   -4.6678 N   0  0  0  0  0  0  0  0  0  0  0  0
   -1.3956    1.3370   -3.7448 C   0  0  0  0  0  0  0  0  0  0  0  0
   -1.1696    1.0632   -2.5142 O   0  0  0  0  0  0  0  0  0  0  0  0
   -2.2904    2.4332   -4.0164 C   0  0  1  0  0  0  0  0  0  0  0  0
   -3.2831    2.3735   -5.1132 C   0  0  0  0  0  0  0  0  0  0  0  0
   -4.3229    1.3208   -5.0727 C   0  0  0  0  0  0  0  0  0  0  0  0
   -2.6094    2.4884   -6.4760 C   0  0  0  0  0  0  0  0  0  0  0  0
   -2.9383    2.9448   -2.8035 N   0  0  0  0  0  0  0  0  0  0  0  0
   -3.8968    2.1653   -2.0495 C   0  0  0  0  0  0  0  0  0  0  0  0
   -2.5680    4.2752   -2.3840 C   0  0  0  0  0  0  0  0  0  0  0  0
   -1.7266    4.8524   -3.0752 O   0  0  0  0  0  0  0  0  0  0  0  0
   -3.1705    4.7955   -1.2692 O   0  0  0  0  0  0  0  0  0  0  0  0
   -2.9746    6.0363   -0.7027 C   0  0  0  0  0  0  0  0  0  0  0  0
   -1.6117    6.2873   -0.2281 C   0  0  0  0  0  0  0  0  0  0  0  0
   -1.2452    5.9943    1.0705 C   0  0  0  0  0  0  0  0  0  0  0  0
    0.0099    6.2091    1.5953 C   0  0  0  0  0  0  0  0  0  0  0  0
    0.9460    6.7515    0.7584 C   0  0  0  0  0  0  0  0  0  0  0  0
    0.5988    7.0580   -0.5627 C   0  0  0  0  0  0  0  0  0  0  0  0
   -0.6601    6.8342   -1.0603 C   0  0  0  0  0  0  0  0  0  0  0  0
    2.2850    7.0863    1.1132 N   0  0  0  0  0  0  0  0  0  0  0  0
    3.2775    6.1360    1.1918 C   0  0  0  0  0  0  0  0  0  0  0  0
    2.8722    4.9116    0.9379 O   0  0  0  0  0  0  0  0  0  0  0  0
    4.7079    6.2028    1.4886 C   0  0  1  0  0  0  0  0  0  0  0  0
    5.1794    6.2804    2.8387 C   0  0  0  0  0  0  0  0  0  0  0  0
    5.0889    7.2125    3.9293 C   0  0  0  0  0  0  0  0  0  0  0  0
    3.8009    7.6730    4.4402 C   0  0  0  0  0  0  0  0  0  0  0  0
    3.1485    8.6073    3.5681 N   0  0  0  0  0  0  0  0  0  0  0  0
    1.8498    9.0474    3.9079 C   0  0  0  0  0  0  0  0  0  0  0  0
    1.2679    8.6416    4.9477 O   0  0  0  0  0  0  0  0  0  0  0  0
    1.1702    9.9699    3.0673 N   0  0  0  0  0  0  0  0  0  0  0  0
    5.1601    4.8032    1.0123 N   0  0  0  0  0  0  0  0  0  0  0  0
    5.3293    4.5659   -0.3536 C   0  0  0  0  0  0  0  0  0  0  0  0
    5.1199    5.4648   -1.1741 O   0  0  0  0  0  0  0  0  0  0  0  0
    5.7650    3.1690   -0.7401 C   0  0  1  0  0  0  0  0  0  0  0  0
    6.6838    3.1520   -1.8996 C   0  0  0  0  0  0  0  0  0  0  0  0
    7.0919    1.7140   -2.1977 C   0  0  0  0  0  0  0  0  0  0  0  0
    7.8499    4.0773   -1.7972 C   0  0  0  0  0  0  0  0  0  0  0  0
    6.2085    2.4816    0.4316 N   0  0  0  0  0  0  0  0  0  0  0  0
    5.3981    1.6774    1.2785 C   0  0  0  0  0  0  0  0  0  0  0  0
    4.1898    1.5697    0.9816 O   0  0  0  0  0  0  0  0  0  0  0  0
    6.0602    1.0421    2.4379 C   0  0  0  0  0  0  0  0  0  0  0  0
    5.1393    0.3464    3.3837 C   0  0  0  0  0  0  0  0  0  0  0  0
    4.3380   -0.7691    2.8165 C   0  0  0  0  0  0  0  0  0  0  0  0
    3.4258   -1.3782    3.8785 C   0  0  0  0  0  0  0  0  0  0  0  0
    4.1836   -1.9499    5.0235 C   0  0  0  0  0  0  0  0  0  0  0  0
    3.2347   -2.4922    5.9951 N   0  0  0  0  0  0  0  0  0  0  0  0
    2.7303   -1.6932    7.0767 C   0  0  0  0  0  0  0  0  0  0  0  0
    3.0177   -0.5077    7.3250 O   0  0  0  0  0  0  0  0  0  0  0  0
    1.8153   -2.5932    7.7993 C   0  0  0  0  0  0  0  0  0  0  0  0
    1.7832   -3.7758    7.2189 C   0  0  0  0  0  0  0  0  0  0  0  0
    2.6736   -3.7899    6.0466 C   0  0  0  0  0  0  0  0  0  0  0  0
    2.9055   -4.7238    5.2504 O   0  0  0  0  0  0  0  0  0  0  0  0
    1.4642   -3.1984   -6.6401 H   0  0  0  0  0  0  0  0  0  0  0  0
    0.9715   -3.5265   -8.3174 H   0  0  0  0  0  0  0  0  0  0  0  0
   -0.1486   -2.6646   -7.2735 H   0  0  0  0  0  0  0  0  0  0  0  0
   -0.6920   -5.1701   -7.6887 H   0  0  0  0  0  0  0  0  0  0  0  0
    0.8036   -5.5330   -6.8468 H   0  0  0  0  0  0  0  0  0  0  0  0
    0.1594   -4.9314   -4.7863 H   0  0  0  0  0  0  0  0  0  0  0  0
   -2.0882   -6.4642   -6.1529 H   0  0  0  0  0  0  0  0  0  0  0  0
   -1.3665   -6.5857   -4.4357 H   0  0  0  0  0  0  0  0  0  0  0  0
   -0.4053   -6.9481   -5.8595 H   0  0  0  0  0  0  0  0  0  0  0  0
   -2.6087   -3.9790   -5.7386 H   0  0  0  0  0  0  0  0  0  0  0  0
   -2.7533   -5.2136   -3.8971 H   0  0  0  0  0  0  0  0  0  0  0  0
   -0.5601   -4.6604   -2.5592 H   0  0  0  0  0  0  0  0  0  0  0  0
   -1.1040   -2.9610   -2.4402 H   0  0  0  0  0  0  0  0  0  0  0  0
    0.6639   -4.6141   -0.9975 H   0  0  0  0  0  0  0  0  0  0  0  0
    0.5069   -3.3915    0.2554 H   0  0  0  0  0  0  0  0  0  0  0  0
    1.1552   -4.9529    1.7399 H   0  0  0  0  0  0  0  0  0  0  0  0
    0.9890   -6.2723    0.4983 H   0  0  0  0  0  0  0  0  0  0  0  0
   -0.7629   -6.0779    2.6665 H   0  0  0  0  0  0  0  0  0  0  0  0
   -1.2771   -6.6783    1.0228 H   0  0  0  0  0  0  0  0  0  0  0  0
   -2.7347   -4.7228    1.4089 H   0  0  0  0  0  0  0  0  0  0  0  0
   -0.0645   -3.3866    2.1737 H   0  0  0  0  0  0  0  0  0  0  0  0
   -1.0884   -1.4269    2.5243 H   0  0  0  0  0  0  0  0  0  0  0  0
   -0.9847   -1.7150    0.0868 H   0  0  0  0  0  0  0  0  0  0  0  0
   -2.8374   -1.9073    0.0841 H   0  0  0  0  0  0  0  0  0  0  0  0
   -1.9675   -0.4284    0.7437 H   0  0  0  0  0  0  0  0  0  0  0  0
   -3.4394   -0.0523    2.0481 H   0  0  0  0  0  0  0  0  0  0  0  0
   -5.0442   -1.1449    4.3312 H   0  0  0  0  0  0  0  0  0  0  0  0
   -6.3525   -1.4678    2.2252 H   0  0  0  0  0  0  0  0  0  0  0  0
   -7.0351   -0.2904    3.3668 H   0  0  0  0  0  0  0  0  0  0  0  0
   -6.2025    0.3675    1.9397 H   0  0  0  0  0  0  0  0  0  0  0  0
   -4.8454    1.7170    3.2161 H   0  0  0  0  0  0  0  0  0  0  0  0
   -5.2018    0.2168    6.6123 H   0  0  0  0  0  0  0  0  0  0  0  0
   -7.0877    0.6227    8.0767 H   0  0  0  0  0  0  0  0  0  0  0  0
   -9.0660    1.9184    7.1693 H   0  0  0  0  0  0  0  0  0  0  0  0
   -9.0288    2.7308    4.8315 H   0  0  0  0  0  0  0  0  0  0  0  0
   -7.1338    2.3170    3.3719 H   0  0  0  0  0  0  0  0  0  0  0  0
   -3.2034    1.9348    4.4555 H   0  0  0  0  0  0  0  0  0  0  0  0
   -0.8571   -4.2779    5.3212 H   0  0  0  0  0  0  0  0  0  0  0  0
    0.4021   -4.5182    3.9804 H   0  0  0  0  0  0  0  0  0  0  0  0
   -0.0683   -2.9090    4.5427 H   0  0  0  0  0  0  0  0  0  0  0  0
   -4.9308   -4.6660   -3.2946 H   0  0  0  0  0  0  0  0  0  0  0  0
   -4.7419   -4.1534   -5.0483 H   0  0  0  0  0  0  0  0  0  0  0  0
   -5.3688   -3.0392   -3.8293 H   0  0  0  0  0  0  0  0  0  0  0  0
   -3.1371   -2.1814   -6.0489 H   0  0  0  0  0  0  0  0  0  0  0  0
   -2.6466   -0.8686   -4.9941 H   0  0  0  0  0  0  0  0  0  0  0  0
   -1.8773   -1.1419   -6.6739 H   0  0  0  0  0  0  0  0  0  0  0  0
    0.3131   -0.3826   -3.1305 H   0  0  0  0  0  0  0  0  0  0  0  0
    1.8134    0.8203   -4.3916 H   0  0  0  0  0  0  0  0  0  0  0  0
    3.5951   -0.5617   -3.9072 H   0  0  0  0  0  0  0  0  0  0  0  0
    2.8623   -2.0043   -4.6140 H   0  0  0  0  0  0  0  0  0  0  0  0
    2.2780   -1.4308   -3.0305 H   0  0  0  0  0  0  0  0  0  0  0  0
    2.5859   -1.1092   -6.5111 H   0  0  0  0  0  0  0  0  0  0  0  0
    0.9158   -0.5765   -6.8233 H   0  0  0  0  0  0  0  0  0  0  0  0
    2.2860    0.6227   -6.5637 H   0  0  0  0  0  0  0  0  0  0  0  0
   -0.8842    0.6946   -5.6746 H   0  0  0  0  0  0  0  0  0  0  0  0
   -1.6085    3.3174   -4.3022 H   0  0  0  0  0  0  0  0  0  0  0  0
   -3.8652    3.3587   -5.0270 H   0  0  0  0  0  0  0  0  0  0  0  0
   -4.3156    0.6294   -4.2356 H   0  0  0  0  0  0  0  0  0  0  0  0
   -4.1932    0.6747   -5.9938 H   0  0  0  0  0  0  0  0  0  0  0  0
   -5.3788    1.7111   -5.1482 H   0  0  0  0  0  0  0  0  0  0  0  0
   -1.5911    2.8654   -6.3717 H   0  0  0  0  0  0  0  0  0  0  0  0
   -2.7115    1.4930   -6.9597 H   0  0  0  0  0  0  0  0  0  0  0  0
   -3.1684    3.2390   -7.0970 H   0  0  0  0  0  0  0  0  0  0  0  0
   -3.6645    1.0860   -2.0069 H   0  0  0  0  0  0  0  0  0  0  0  0
   -4.9277    2.3726   -2.4066 H   0  0  0  0  0  0  0  0  0  0  0  0
   -3.8667    2.5977   -1.0074 H   0  0  0  0  0  0  0  0  0  0  0  0
   -3.6389    6.1042    0.2071 H   0  0  0  0  0  0  0  0  0  0  0  0
   -3.2748    6.8387   -1.4226 H   0  0  0  0  0  0  0  0  0  0  0  0
   -1.9989    5.5597    1.7241 H   0  0  0  0  0  0  0  0  0  0  0  0
    0.3046    5.9872    2.6062 H   0  0  0  0  0  0  0  0  0  0  0  0
    1.3541    7.4915   -1.2340 H   0  0  0  0  0  0  0  0  0  0  0  0
   -0.8360    7.1188   -2.0843 H   0  0  0  0  0  0  0  0  0  0  0  0
    2.4849    8.0774    1.2768 H   0  0  0  0  0  0  0  0  0  0  0  0
    5.1953    6.9045    0.7263 H   0  0  0  0  0  0  0  0  0  0  0  0
    4.9427    5.1884    3.3175 H   0  0  0  0  0  0  0  0  0  0  0  0
    6.3702    6.0438    2.7850 H   0  0  0  0  0  0  0  0  0  0  0  0
    5.7118    8.1590    3.6768 H   0  0  0  0  0  0  0  0  0  0  0  0
    5.6636    6.7966    4.8466 H   0  0  0  0  0  0  0  0  0  0  0  0
    3.8518    8.0756    5.4974 H   0  0  0  0  0  0  0  0  0  0  0  0
    3.0887    6.7897    4.5032 H   0  0  0  0  0  0  0  0  0  0  0  0
    3.6990    8.9471    2.7477 H   0  0  0  0  0  0  0  0  0  0  0  0
    0.4635    9.6392    2.3537 H   0  0  0  0  0  0  0  0  0  0  0  0
    1.3136   10.9994    3.0879 H   0  0  0  0  0  0  0  0  0  0  0  0
    5.3142    4.0820    1.7383 H   0  0  0  0  0  0  0  0  0  0  0  0
    4.7709    2.6479   -1.0064 H   0  0  0  0  0  0  0  0  0  0  0  0
    6.1095    3.4703   -2.8122 H   0  0  0  0  0  0  0  0  0  0  0  0
    8.1558    1.5309   -1.8690 H   0  0  0  0  0  0  0  0  0  0  0  0
    6.9154    1.4223   -3.2426 H   0  0  0  0  0  0  0  0  0  0  0  0
    6.4670    1.0021   -1.5795 H   0  0  0  0  0  0  0  0  0  0  0  0
    8.1974    4.1969   -0.7577 H   0  0  0  0  0  0  0  0  0  0  0  0
    8.6619    3.7807   -2.5004 H   0  0  0  0  0  0  0  0  0  0  0  0
    7.5341    5.0907   -2.1437 H   0  0  0  0  0  0  0  0  0  0  0  0
    7.2412    2.5978    0.6835 H   0  0  0  0  0  0  0  0  0  0  0  0
    6.8639    0.3356    2.0893 H   0  0  0  0  0  0  0  0  0  0  0  0
    6.5942    1.8717    2.9755 H   0  0  0  0  0  0  0  0  0  0  0  0
    5.7942   -0.0716    4.2082 H   0  0  0  0  0  0  0  0  0  0  0  0
    4.4986    1.0910    3.9270 H   0  0  0  0  0  0  0  0  0  0  0  0
    5.0174   -1.5574    2.4020 H   0  0  0  0  0  0  0  0  0  0  0  0
    3.6935   -0.4044    2.0127 H   0  0  0  0  0  0  0  0  0  0  0  0
    2.7871   -2.1616    3.3847 H   0  0  0  0  0  0  0  0  0  0  0  0
    2.7728   -0.5262    4.2092 H   0  0  0  0  0  0  0  0  0  0  0  0
    4.8039   -1.1807    5.5068 H   0  0  0  0  0  0  0  0  0  0  0  0
    4.8034   -2.7983    4.6721 H   0  0  0  0  0  0  0  0  0  0  0  0
    1.2824   -2.2547    8.6780 H   0  0  0  0  0  0  0  0  0  0  0  0
    1.2081   -4.6465    7.5131 H   0  0  0  0  0  0  0  0  0  0  0  0
  1  2  1  0
  2  3  1  0
  3  4  1  0
  3  5  1  0
  5  6  1  0
  6  7  1  0
  7  8  1  0
  8  9  2  0
  8 10  1  0
 10 11  1  0
 11 12  1  0
 12 13  1  0
 13 14  1  0
 14 15  1  0
 15 16  1  0
 16 17  1  0
 16 18  1  0
 18 19  2  0
 18 20  1  0
 20 21  1  0
 21 22  1  0
 21 23  1  0
 23 24  1  0
 24 25  2  0
 25 26  1  0
 26 27  2  0
 27 28  1  0
 28 29  2  0
 23 30  1  0
 15 31  1  0
 31 32  1  0
  6 33  1  0
 33 34  1  0
  5 35  1  0
 35 36  1  0
 35 37  1  0
 37 38  2  0
 37 39  1  0
 39 40  1  0
 40 41  1  0
 40 42  1  0
 39 43  1  0
 43 44  1  0
 44 45  2  0
 44 46  1  0
 46 47  1  0
 47 48  1  0
 47 49  1  0
 46 50  1  0
 50 51  1  0
 50 52  1  0
 52 53  2  0
 52 54  1  0
 54 55  1  0
 55 56  1  0
 56 57  1  0
 57 58  2  0
 58 59  1  0
 59 60  2  0
 60 61  1  0
 59 62  1  0
 62 63  1  0
 63 64  2  0
 63 65  1  0
 65 66  1  0
 66 67  1  0
 67 68  1  0
 68 69  1  0
 69 70  1  0
 70 71  2  0
 70 72  1  0
 65 73  1  0
 73 74  1  0
 74 75  2  0
 74 76  1  0
 76 77  1  0
 77 78  1  0
 77 79  1  0
 76 80  1  0
 80 81  1  0
 81 82  2  0
 81 83  1  0
 83 84  1  0
 84 85  1  0
 85 86  1  0
 86 87  1  0
 87 88  1  0
 88 89  1  0
 89 90  2  0
 89 91  1  0
 91 92  2  0
 92 93  1  0
 93 94  2  0
 14 10  1  0
 29 24  1  0
 61 56  2  0
 93 88  1  0
  1 95  1  0
  1 96  1  0
  1 97  1  0
  2 98  1  0
  2 99  1  0
  3100  1  1
  4101  1  0
  4102  1  0
  4103  1  0
  5104  1  6
  6105  1  6
  7106  1  0
  7107  1  0
 11108  1  0
 11109  1  0
 12110  1  0
 12111  1  0
 13112  1  0
 13113  1  0
 14114  1  6
 15115  1  1
 16116  1  1
 17117  1  0
 17118  1  0
 17119  1  0
 20120  1  0
 21121  1  1
 22122  1  0
 22123  1  0
 22124  1  0
 23125  1  6
 25126  1  0
 26127  1  0
 27128  1  0
 28129  1  0
 29130  1  0
 30131  1  0
 32132  1  0
 32133  1  0
 32134  1  0
 34135  1  0
 34136  1  0
 34137  1  0
 36138  1  0
 36139  1  0
 36140  1  0
 39141  1  1
 40142  1  0
 41143  1  0
 41144  1  0
 41145  1  0
 42146  1  0
 42147  1  0
 42148  1  0
 43149  1  0
 46150  1  6
 47151  1  0
 48152  1  0
 48153  1  0
 48154  1  0
 49155  1  0
 49156  1  0
 49157  1  0
 51158  1  0
 51159  1  0
 51160  1  0
 55161  1  0
 55162  1  0
 57163  1  0
 58164  1  0
 60165  1  0
 61166  1  0
 62167  1  0
 65168  1  6
 66169  1  0
 66170  1  0
 67171  1  0
 67172  1  0
 68173  1  0
 68174  1  0
 69175  1  0
 72176  1  0
 72177  1  0
 73178  1  0
 76179  1  6
 77180  1  0
 78181  1  0
 78182  1  0
 78183  1  0
 79184  1  0
 79185  1  0
 79186  1  0
 80187  1  0
 83188  1  0
 83189  1  0
 84190  1  0
 84191  1  0
 85192  1  0
 85193  1  0
 86194  1  0
 86195  1  0
 87196  1  0
 87197  1  0
 91198  1  0
 92199  1  0
M  END
$$$$

     RDKit          3D

199202  0  0  0  0  0  0  0  0999 V2000
    1.8482    1.0912   -2.9892 C   0  0  0  0  0  0  0  0  0  0  0  0
    2.5454    0.3510   -1.9035 C   0  0  0  0  0  0  0  0  0  0  0  0
    1.8390   -0.0716   -0.7015 C   0  0  2  0  0  0  0  0  0  0  0  0
    2.9045   -0.7444    0.2069 C   0  0  0  0  0  0  0  0  0  0  0  0
    0.6358   -0.9846   -0.7426 C   0  0  1  0  0  0  0  0  0  0  0  0
   -0.5599   -0.5297   -1.4841 C   0  0  1  0  0  0  0  0  0  0  0  0
   -0.8159   -0.8813   -2.8639 C   0  0  0  0  0  0  0  0  0  0  0  0
   -2.0075   -0.2076   -3.4277 C   0  0  0  0  0  0  0  0  0  0  0  0
   -2.5755    0.7057   -2.7243 O   0  0  0  0  0  0  0  0  0  0  0  0
   -2.6090   -0.4381   -4.6714 N   0  0  0  0  0  0  0  0  0  0  0  0
   -3.7779    0.4458   -5.0548 C   0  0  0  0  0  0  0  0  0  0  0  0
   -3.6346    0.5585   -6.5714 C   0  0  0  0  0  0  0  0  0  0  0  0
   -2.3721   -0.2390   -6.8794 C   0  0  0  0  0  0  0  0  0  0  0  0
   -2.5061   -1.2837   -5.8033 C   0  0  1  0  0  0  0  0  0  0  0  0
   -1.8402   -2.5351   -5.8838 C   0  0  1  0  0  0  0  0  0  0  0  0
   -0.4455   -2.8699   -5.9202 C   0  0  1  0  0  0  0  0  0  0  0  0
   -0.2928   -4.4172   -6.0191 C   0  0  0  0  0  0  0  0  0  0  0  0
    0.4574   -2.3574   -6.9408 C   0  0  0  0  0  0  0  0  0  0  0  0
    0.9305   -3.0945   -7.8823 O   0  0  0  0  0  0  0  0  0  0  0  0
    0.9226   -0.9895   -7.0112 N   0  0  0  0  0  0  0  0  0  0  0  0
    1.8348   -0.6709   -8.1072 C   0  0  2  0  0  0  0  0  0  0  0  0
    3.2311   -0.8394   -7.4501 C   0  0  0  0  0  0  0  0  0  0  0  0
    1.6749    0.6696   -8.7036 C   0  0  1  0  0  0  0  0  0  0  0  0
    1.9542    1.7845   -7.7504 C   0  0  0  0  0  0  0  0  0  0  0  0
    0.8747    2.4801   -7.2494 C   0  0  0  0  0  0  0  0  0  0  0  0
    1.0771    3.5165   -6.3641 C   0  0  0  0  0  0  0  0  0  0  0  0
    2.3524    3.8672   -5.9717 C   0  0  0  0  0  0  0  0  0  0  0  0
    3.4319    3.1631   -6.4808 C   0  0  0  0  0  0  0  0  0  0  0  0
    3.2340    2.1216   -7.3711 C   0  0  0  0  0  0  0  0  0  0  0  0
    2.5786    0.8456   -9.7494 O   0  0  0  0  0  0  0  0  0  0  0  0
   -2.4744   -3.3701   -4.8992 O   0  0  0  0  0  0  0  0  0  0  0  0
   -3.3238   -4.2879   -5.4610 C   0  0  0  0  0  0  0  0  0  0  0  0
   -1.7033   -1.1359   -0.7812 O   0  0  0  0  0  0  0  0  0  0  0  0
   -2.3498   -0.3028    0.0515 C   0  0  0  0  0  0  0  0  0  0  0  0
    0.9870   -2.3851   -0.6222 N   0  0  0  0  0  0  0  0  0  0  0  0
    1.3982   -3.0368   -1.8520 C   0  0  0  0  0  0  0  0  0  0  0  0
    0.8891   -2.9851    0.6444 C   0  0  0  0  0  0  0  0  0  0  0  0
    0.4135   -2.1270    1.5474 O   0  0  0  0  0  0  0  0  0  0  0  0
    1.1663   -4.2683    1.2113 C   0  0  1  0  0  0  0  0  0  0  0  0
    2.5736   -4.7985    1.2041 C   0  0  0  0  0  0  0  0  0  0  0  0
    3.2223   -5.0449   -0.1067 C   0  0  0  0  0  0  0  0  0  0  0  0
    3.4805   -3.9368    2.0963 C   0  0  0  0  0  0  0  0  0  0  0  0
    0.7201   -4.3733    2.6428 N   0  0  0  0  0  0  0  0  0  0  0  0
   -0.1450   -5.3978    3.0768 C   0  0  0  0  0  0  0  0  0  0  0  0
   -0.5538   -6.2006    2.1440 O   0  0  0  0  0  0  0  0  0  0  0  0
   -0.6252   -5.6780    4.4047 C   0  0  1  0  0  0  0  0  0  0  0  0
   -0.6709   -7.2103    4.6722 C   0  0  0  0  0  0  0  0  0  0  0  0
   -1.6045   -7.8480    3.6681 C   0  0  0  0  0  0  0  0  0  0  0  0
    0.6318   -7.8830    4.7381 C   0  0  0  0  0  0  0  0  0  0  0  0
   -0.0878   -5.0190    5.5470 N   0  0  0  0  0  0  0  0  0  0  0  0
   -1.0268   -4.4871    6.5606 C   0  0  0  0  0  0  0  0  0  0  0  0
    1.2979   -4.7819    5.8349 C   0  0  0  0  0  0  0  0  0  0  0  0
    2.0752   -4.9948    4.8527 O   0  0  0  0  0  0  0  0  0  0  0  0
    1.6949   -4.3641    7.0663 O   0  0  0  0  0  0  0  0  0  0  0  0
    3.0430   -4.0345    7.3639 C   0  0  0  0  0  0  0  0  0  0  0  0
    3.2472   -2.7408    6.5898 C   0  0  0  0  0  0  0  0  0  0  0  0
    2.7301   -1.6349    7.2990 C   0  0  0  0  0  0  0  0  0  0  0  0
    2.7157   -0.4076    6.7046 C   0  0  0  0  0  0  0  0  0  0  0  0
    3.2198   -0.3308    5.4177 C   0  0  0  0  0  0  0  0  0  0  0  0
    3.7308   -1.3848    4.7230 C   0  0  0  0  0  0  0  0  0  0  0  0
    3.7468   -2.6545    5.3379 C   0  0  0  0  0  0  0  0  0  0  0  0
    3.0041    0.9876    4.8159 N   0  0  0  0  0  0  0  0  0  0  0  0
    1.6367    1.1091    4.4587 C   0  0  0  0  0  0  0  0  0  0  0  0
    0.9361    0.0541    4.7464 O   0  0  0  0  0  0  0  0  0  0  0  0
    0.8893    2.1954    3.8379 C   0  0  1  0  0  0  0  0  0  0  0  0
   -0.1114    2.6828    4.8484 C   0  0  0  0  0  0  0  0  0  0  0  0
   -1.0209    3.7599    4.4468 C   0  0  0  0  0  0  0  0  0  0  0  0
   -1.9396    3.3061    3.3425 C   0  0  0  0  0  0  0  0  0  0  0  0
   -2.7749    2.1989    3.7732 N   0  0  0  0  0  0  0  0  0  0  0  0
   -3.7515    1.5768    2.9514 C   0  0  0  0  0  0  0  0  0  0  0  0
   -3.9229    1.9869    1.7843 O   0  0  0  0  0  0  0  0  0  0  0  0
   -4.5253    0.4845    3.4865 N   0  0  0  0  0  0  0  0  0  0  0  0
    1.7768    3.2365    3.4078 N   0  0  0  0  0  0  0  0  0  0  0  0
    2.7869    3.1145    2.4224 C   0  0  0  0  0  0  0  0  0  0  0  0
    2.9953    2.0299    1.8767 O   0  0  0  0  0  0  0  0  0  0  0  0
    3.5983    4.3283    2.0607 C   0  0  1  0  0  0  0  0  0  0  0  0
    4.2893    4.2195    0.7739 C   0  0  0  0  0  0  0  0  0  0  0  0
    3.4356    4.0107   -0.4389 C   0  0  0  0  0  0  0  0  0  0  0  0
    5.0836    5.5078    0.5560 C   0  0  0  0  0  0  0  0  0  0  0  0
    2.8136    5.5278    2.3008 N   0  0  0  0  0  0  0  0  0  0  0  0
    1.4919    5.5045    1.8342 C   0  0  0  0  0  0  0  0  0  0  0  0
    1.0562    4.4718    1.2294 O   0  0  0  0  0  0  0  0  0  0  0  0
    0.4854    6.6073    1.9727 C   0  0  0  0  0  0  0  0  0  0  0  0
   -0.7794    6.1832    1.2351 C   0  0  0  0  0  0  0  0  0  0  0  0
   -1.8273    7.2402    1.4114 C   0  0  0  0  0  0  0  0  0  0  0  0
   -3.1232    6.8360    0.7251 C   0  0  0  0  0  0  0  0  0  0  0  0
   -4.1408    7.9085    0.9407 C   0  0  0  0  0  0  0  0  0  0  0  0
   -5.4143    7.5625    0.3107 N   0  0  0  0  0  0  0  0  0  0  0  0
   -6.4674    6.8359    0.9743 C   0  0  0  0  0  0  0  0  0  0  0  0
   -6.4999    6.3892    2.1421 O   0  0  0  0  0  0  0  0  0  0  0  0
   -7.5514    6.7043   -0.0033 C   0  0  0  0  0  0  0  0  0  0  0  0
   -7.2175    7.2765   -1.1391 C   0  0  0  0  0  0  0  0  0  0  0  0
   -5.8638    7.8452   -1.0074 C   0  0  0  0  0  0  0  0  0  0  0  0
   -5.1955    8.4670   -1.8617 O   0  0  0  0  0  0  0  0  0  0  0  0
    0.8326    1.4604   -2.7557 H   0  0  0  0  0  0  0  0  0  0  0  0
    2.4062    2.0688   -3.2156 H   0  0  0  0  0  0  0  0  0  0  0  0
    1.8940    0.5588   -3.9800 H   0  0  0  0  0  0  0  0  0  0  0  0
    3.1007   -0.4824   -2.4278 H   0  0  0  0  0  0  0  0  0  0  0  0
    3.4297    1.0239   -1.6009 H   0  0  0  0  0  0  0  0  0  0  0  0
    1.6088    0.8749   -0.1285 H   0  0  0  0  0  0  0  0  0  0  0  0
    2.9121   -1.8169   -0.0539 H   0  0  0  0  0  0  0  0  0  0  0  0
    2.7057   -0.6232    1.2605 H   0  0  0  0  0  0  0  0  0  0  0  0
    3.8879   -0.3181   -0.0147 H   0  0  0  0  0  0  0  0  0  0  0  0
    0.2717   -0.7840    0.3670 H   0  0  0  0  0  0  0  0  0  0  0  0
   -0.6852    0.5235   -1.2419 H   0  0  0  0  0  0  0  0  0  0  0  0
   -1.1063   -1.9963   -2.8851 H   0  0  0  0  0  0  0  0  0  0  0  0
   -0.0567   -0.7346   -3.6464 H   0  0  0  0  0  0  0  0  0  0  0  0
   -3.6610    1.4445   -4.6563 H   0  0  0  0  0  0  0  0  0  0  0  0
   -4.7145   -0.0675   -4.8015 H   0  0  0  0  0  0  0  0  0  0  0  0
   -3.5223    1.6108   -6.9081 H   0  0  0  0  0  0  0  0  0  0  0  0
   -4.5082    0.1429   -7.0929 H   0  0  0  0  0  0  0  0  0  0  0  0
   -2.4733   -0.6269   -7.9095 H   0  0  0  0  0  0  0  0  0  0  0  0
   -1.5761    0.4935   -6.7417 H   0  0  0  0  0  0  0  0  0  0  0  0
   -3.6443   -1.5789   -5.9551 H   0  0  0  0  0  0  0  0  0  0  0  0
   -2.3021   -3.0441   -6.8392 H   0  0  0  0  0  0  0  0  0  0  0  0
    0.0623   -2.6739   -4.9183 H   0  0  0  0  0  0  0  0  0  0  0  0
   -0.6789   -4.9271   -5.1466 H   0  0  0  0  0  0  0  0  0  0  0  0
    0.8106   -4.6532   -6.0510 H   0  0  0  0  0  0  0  0  0  0  0  0
   -0.6710   -4.7635   -6.9997 H   0  0  0  0  0  0  0  0  0  0  0  0
    0.6154   -0.2983   -6.3010 H   0  0  0  0  0  0  0  0  0  0  0  0
    1.8546   -1.4379   -8.9037 H   0  0  0  0  0  0  0  0  0  0  0  0
    3.3229   -0.2448   -6.5393 H   0  0  0  0  0  0  0  0  0  0  0  0
    3.1697   -1.9113   -7.0667 H   0  0  0  0  0  0  0  0  0  0  0  0
    4.0379   -0.8186   -8.1708 H   0  0  0  0  0  0  0  0  0  0  0  0
    0.6662    0.7484   -9.1466 H   0  0  0  0  0  0  0  0  0  0  0  0
   -0.1301    2.1939   -7.5692 H   0  0  0  0  0  0  0  0  0  0  0  0
    0.2265    4.0647   -5.9735 H   0  0  0  0  0  0  0  0  0  0  0  0
    2.4884    4.6797   -5.2742 H   0  0  0  0  0  0  0  0  0  0  0  0
    4.4540    3.3959   -6.1994 H   0  0  0  0  0  0  0  0  0  0  0  0
    4.1162    1.5954   -7.7538 H   0  0  0  0  0  0  0  0  0  0  0  0
    3.4816    0.6392   -9.4252 H   0  0  0  0  0  0  0  0  0  0  0  0
   -3.7607   -4.8695   -4.6102 H   0  0  0  0  0  0  0  0  0  0  0  0
   -2.8530   -5.0537   -6.1028 H   0  0  0  0  0  0  0  0  0  0  0  0
   -4.1983   -3.8064   -5.9679 H   0  0  0  0  0  0  0  0  0  0  0  0
   -1.6016    0.0648    0.8121 H   0  0  0  0  0  0  0  0  0  0  0  0
   -3.0157   -0.9613    0.7325 H   0  0  0  0  0  0  0  0  0  0  0  0
   -3.0339    0.4563   -0.2850 H   0  0  0  0  0  0  0  0  0  0  0  0
    1.1316   -2.4333   -2.7615 H   0  0  0  0  0  0  0  0  0  0  0  0
    2.4916   -3.1352   -1.9851 H   0  0  0  0  0  0  0  0  0  0  0  0
    0.9824   -4.0662   -1.9401 H   0  0  0  0  0  0  0  0  0  0  0  0
    0.5522   -5.0373    0.6960 H   0  0  0  0  0  0  0  0  0  0  0  0
    2.5221   -5.7750    1.7560 H   0  0  0  0  0  0  0  0  0  0  0  0
    3.7425   -4.1141   -0.3993 H   0  0  0  0  0  0  0  0  0  0  0  0
    2.5036   -5.4220   -0.8557 H   0  0  0  0  0  0  0  0  0  0  0  0
    4.0103   -5.8615   -0.0224 H   0  0  0  0  0  0  0  0  0  0  0  0
    4.1942   -4.5457    2.6617 H   0  0  0  0  0  0  0  0  0  0  0  0
    4.0886   -3.3282    1.3726 H   0  0  0  0  0  0  0  0  0  0  0  0
    2.8791   -3.2380    2.6706 H   0  0  0  0  0  0  0  0  0  0  0  0
    1.0438   -3.6778    3.3433 H   0  0  0  0  0  0  0  0  0  0  0  0
   -1.7681   -5.5113    4.4323 H   0  0  0  0  0  0  0  0  0  0  0  0
   -1.1916   -7.2888    5.6697 H   0  0  0  0  0  0  0  0  0  0  0  0
   -2.1542   -8.6822    4.2080 H   0  0  0  0  0  0  0  0  0  0  0  0
   -1.0696   -8.3895    2.8545 H   0  0  0  0  0  0  0  0  0  0  0  0
   -2.3129   -7.0929    3.3292 H   0  0  0  0  0  0  0  0  0  0  0  0
    0.4958   -8.9324    5.1898 H   0  0  0  0  0  0  0  0  0  0  0  0
    1.2955   -7.4058    5.4898 H   0  0  0  0  0  0  0  0  0  0  0  0
    1.2010   -7.9870    3.8029 H   0  0  0  0  0  0  0  0  0  0  0  0
   -1.3592   -3.4706    6.2679 H   0  0  0  0  0  0  0  0  0  0  0  0
   -0.5585   -4.5082    7.5614 H   0  0  0  0  0  0  0  0  0  0  0  0
   -1.9205   -5.1317    6.5824 H   0  0  0  0  0  0  0  0  0  0  0  0
    3.1355   -3.8080    8.4287 H   0  0  0  0  0  0  0  0  0  0  0  0
    3.7473   -4.7868    6.9966 H   0  0  0  0  0  0  0  0  0  0  0  0
    2.3469   -1.7334    8.3069 H   0  0  0  0  0  0  0  0  0  0  0  0
    2.3191    0.4548    7.2393 H   0  0  0  0  0  0  0  0  0  0  0  0
    4.1115   -1.2401    3.7257 H   0  0  0  0  0  0  0  0  0  0  0  0
    4.1716   -3.5075    4.8366 H   0  0  0  0  0  0  0  0  0  0  0  0
    3.7064    1.6998    4.6777 H   0  0  0  0  0  0  0  0  0  0  0  0
    0.3554    1.8181    2.9313 H   0  0  0  0  0  0  0  0  0  0  0  0
    0.4137    2.9706    5.8096 H   0  0  0  0  0  0  0  0  0  0  0  0
   -0.6854    1.7590    5.1640 H   0  0  0  0  0  0  0  0  0  0  0  0
   -1.6784    4.0582    5.3161 H   0  0  0  0  0  0  0  0  0  0  0  0
   -0.4934    4.6627    4.0561 H   0  0  0  0  0  0  0  0  0  0  0  0
   -2.6122    4.1353    3.1109 H   0  0  0  0  0  0  0  0  0  0  0  0
   -1.3017    2.9521    2.5112 H   0  0  0  0  0  0  0  0  0  0  0  0
   -2.6665    1.8259    4.7424 H   0  0  0  0  0  0  0  0  0  0  0  0
   -4.9156   -0.2556    2.8488 H   0  0  0  0  0  0  0  0  0  0  0  0
   -4.7226    0.3989    4.5147 H   0  0  0  0  0  0  0  0  0  0  0  0
    1.6698    4.1740    3.8695 H   0  0  0  0  0  0  0  0  0  0  0  0
    4.3646    4.3345    2.9043 H   0  0  0  0  0  0  0  0  0  0  0  0
    5.0304    3.3662    0.8526 H   0  0  0  0  0  0  0  0  0  0  0  0
    2.8054    3.1031   -0.3639 H   0  0  0  0  0  0  0  0  0  0  0  0
    4.1387    3.7941   -1.3000 H   0  0  0  0  0  0  0  0  0  0  0  0
    2.8935    4.9213   -0.7396 H   0  0  0  0  0  0  0  0  0  0  0  0
    5.4284    5.8819    1.5574 H   0  0  0  0  0  0  0  0  0  0  0  0
    5.9205    5.2551   -0.1141 H   0  0  0  0  0  0  0  0  0  0  0  0
    4.3767    6.2384    0.1045 H   0  0  0  0  0  0  0  0  0  0  0  0
    3.1509    6.3817    2.7788 H   0  0  0  0  0  0  0  0  0  0  0  0
    0.2416    6.7155    3.0474 H   0  0  0  0  0  0  0  0  0  0  0  0
    0.8556    7.5210    1.5092 H   0  0  0  0  0  0  0  0  0  0  0  0
   -0.4463    6.1233    0.1507 H   0  0  0  0  0  0  0  0  0  0  0  0
   -1.1203    5.1796    1.4764 H   0  0  0  0  0  0  0  0  0  0  0  0
   -2.0002    7.3375    2.5022 H   0  0  0  0  0  0  0  0  0  0  0  0
   -1.4551    8.1647    0.9438 H   0  0  0  0  0  0  0  0  0  0  0  0
   -3.4569    5.8249    1.0643 H   0  0  0  0  0  0  0  0  0  0  0  0
   -2.8544    6.7257   -0.3506 H   0  0  0  0  0  0  0  0  0  0  0  0
   -4.3452    8.1002    2.0167 H   0  0  0  0  0  0  0  0  0  0  0  0
   -3.7760    8.8575    0.5043 H   0  0  0  0  0  0  0  0  0  0  0  0
   -8.5290    6.2109    0.1470 H   0  0  0  0  0  0  0  0  0  0  0  0
   -7.8296    7.3320   -2.0545 H   0  0  0  0  0  0  0  0  0  0  0  0
  1  2  1  0
  2  3  1  0
  3  4  1  0
  3  5  1  0
  5  6  1  0
  6  7  1  0
  7  8  1  0
  8  9  2  0
  8 10  1  0
 10 11  1  0
 11 12  1  0
 12 13  1  0
 13 14  1  0
 14 15  1  0
 15 16  1  0
 16 17  1  0
 16 18  1  0
 18 19  2  0
 18 20  1  0
 20 21  1  0
 21 22  1  0
 21 23  1  0
 23 24  1  0
 24 25  2  0
 25 26  1  0
 26 27  2  0
 27 28  1  0
 28 29  2  0
 23 30  1  0
 15 31  1  0
 31 32  1  0
  6 33  1  0
 33 34  1  0
  5 35  1  0
 35 36  1  0
 35 37  1  0
 37 38  2  0
 37 39  1  0
 39 40  1  0
 40 41  1  0
 40 42  1  0
 39 43  1  0
 43 44  1  0
 44 45  2  0
 44 46  1  0
 46 47  1  0
 47 48  1  0
 47 49  1  0
 46 50  1  0
 50 51  1  0
 50 52  1  0
 52 53  2  0
 52 54  1  0
 54 55  1  0
 55 56  1  0
 56 57  1  0
 57 58  2  0
 58 59  1  0
 59 60  2  0
 60 61  1  0
 59 62  1  0
 62 63  1  0
 63 64  2  0
 63 65  1  0
 65 66  1  0
 66 67  1  0
 67 68  1  0
 68 69  1  0
 69 70  1  0
 70 71  2  0
 70 72  1  0
 65 73  1  0
 73 74  1  0
 74 75  2  0
 74 76  1  0
 76 77  1  0
 77 78  1  0
 77 79  1  0
 76 80  1  0
 80 81  1  0
 81 82  2  0
 81 83  1  0
 83 84  1  0
 84 85  1  0
 85 86  1  0
 86 87  1  0
 87 88  1  0
 88 89  1  0
 89 90  2  0
 89 91  1  0
 91 92  2  0
 92 93  1  0
 93 94  2  0
 14 10  1  0
 29 24  1  0
 61 56  2  0
 93 88  1  0
  1 95  1  0
  1 96  1  0
  1 97  1  0
  2 98  1  0
  2 99  1  0
  3100  1  1
  4101  1  0
  4102  1  0
  4103  1  0
  5104  1  1
  6105  1  6
  7106  1  0
  7107  1  0
 11108  1  0
 11109  1  0
 12110  1  0
 12111  1  0
 13112  1  0
 13113  1  0
 14114  1  6
 15115  1  6
 16116  1  1
 17117  1  0
 17118  1  0
 17119  1  0
 20120  1  0
 21121  1  6
 22122  1  0
 22123  1  0
 22124  1  0
 23125  1  6
 25126  1  0
 26127  1  0
 27128  1  0
 28129  1  0
 29130  1  0
 30131  1  0
 32132  1  0
 32133  1  0
 32134  1  0
 34135  1  0
 34136  1  0
 34137  1  0
 36138  1  0
 36139  1  0
 36140  1  0
 39141  1  6
 40142  1  0
 41143  1  0
 41144  1  0
 41145  1  0
 42146  1  0
 42147  1  0
 42148  1  0
 43149  1  0
 46150  1  6
 47151  1  0
 48152  1  0
 48153  1  0
 48154  1  0
 49155  1  0
 49156  1  0
 49157  1  0
 51158  1  0
 51159  1  0
 51160  1  0
 55161  1  0
 55162  1  0
 57163  1  0
 58164  1  0
 60165  1  0
 61166  1  0
 62167  1  0
 65168  1  6
 66169  1  0
 66170  1  0
 67171  1  0
 67172  1  0
 68173  1  0
 68174  1  0
 69175  1  0
 72176  1  0
 72177  1  0
 73178  1  0
 76179  1  1
 77180  1  0
 78181  1  0
 78182  1  0
 78183  1  0
 79184  1  0
 79185  1  0
 79186  1  0
 80187  1  0
 83188  1  0
 83189  1  0
 84190  1  0
 84191  1  0
 85192  1  0
 85193  1  0
 86194  1  0
 86195  1  0
 87196  1  0
 87197  1  0
 91198  1  0
 92199  1  0
M  END
$$$$

     RDKit          3D

199202  0  0  0  0  0  0  0  0999 V2000
    3.6739   -5.5105    3.2407 C   0  0  0  0  0  0  0  0  0  0  0  0
    2.4830   -5.0891    4.0691 C   0  0  0  0  0  0  0  0  0  0  0  0
    1.1757   -5.5705    3.6781 C   0  0  2  0  0  0  0  0  0  0  0  0
    1.1476   -7.0922    3.6502 C   0  0  0  0  0  0  0  0  0  0  0  0
    0.2271   -4.9915    2.7300 C   0  0  1  0  0  0  0  0  0  0  0  0
   -0.3210   -3.6170    3.0484 C   0  0  1  0  0  0  0  0  0  0  0  0
   -1.3725   -3.2430    2.0266 C   0  0  0  0  0  0  0  0  0  0  0  0
   -2.0126   -1.9406    2.2129 C   0  0  0  0  0  0  0  0  0  0  0  0
   -2.9495   -1.9021    3.1024 O   0  0  0  0  0  0  0  0  0  0  0  0
   -1.6356   -0.7994    1.4730 N   0  0  0  0  0  0  0  0  0  0  0  0
   -0.6161   -0.7124    0.3947 C   0  0  0  0  0  0  0  0  0  0  0  0
   -1.4085    0.0963   -0.6610 C   0  0  0  0  0  0  0  0  0  0  0  0
   -2.6507    0.6310    0.0720 C   0  0  0  0  0  0  0  0  0  0  0  0
   -2.1405    0.5642    1.4871 C   0  0  1  0  0  0  0  0  0  0  0  0
   -3.1273    0.9301    2.5272 C   0  0  1  0  0  0  0  0  0  0  0  0
   -2.4335    1.1105    3.8440 C   0  0  1  0  0  0  0  0  0  0  0  0
   -1.4057    2.2249    3.6937 C   0  0  0  0  0  0  0  0  0  0  0  0
   -3.2962    1.4857    4.9724 C   0  0  0  0  0  0  0  0  0  0  0  0
   -4.5314    1.6368    4.9625 O   0  0  0  0  0  0  0  0  0  0  0  0
   -2.6436    1.7093    6.2337 N   0  0  0  0  0  0  0  0  0  0  0  0
   -3.4056    2.0996    7.4078 C   0  0  2  0  0  0  0  0  0  0  0  0
   -2.8849    3.4247    7.9616 C   0  0  0  0  0  0  0  0  0  0  0  0
   -3.1878    1.0547    8.4731 C   0  0  1  0  0  0  0  0  0  0  0  0
   -3.6368   -0.2915    8.0869 C   0  0  0  0  0  0  0  0  0  0  0  0
   -4.7525   -0.8125    8.7285 C   0  0  0  0  0  0  0  0  0  0  0  0
   -5.2675   -2.0522    8.4715 C   0  0  0  0  0  0  0  0  0  0  0  0
   -4.6198   -2.8266    7.5051 C   0  0  0  0  0  0  0  0  0  0  0  0
   -3.5159   -2.3405    6.8536 C   0  0  0  0  0  0  0  0  0  0  0  0
   -3.0382   -1.0878    7.1486 C   0  0  0  0  0  0  0  0  0  0  0  0
   -1.7936    1.0363    8.6990 O   0  0  0  0  0  0  0  0  0  0  0  0
   -3.4936    2.2729    2.1727 O   0  0  0  0  0  0  0  0  0  0  0  0
   -4.8253    2.3314    1.7860 C   0  0  0  0  0  0  0  0  0  0  0  0
   -0.7430   -3.4817    4.3298 O   0  0  0  0  0  0  0  0  0  0  0  0
   -0.0587   -2.6894    5.1937 C   0  0  0  0  0  0  0  0  0  0  0  0
    0.5780   -5.0885    1.3242 N   0  0  0  0  0  0  0  0  0  0  0  0
   -0.1472   -6.0772    0.4929 C   0  0  0  0  0  0  0  0  0  0  0  0
    1.5600   -4.3231    0.6692 C   0  0  0  0  0  0  0  0  0  0  0  0
    2.1734   -3.4573    1.4148 O   0  0  0  0  0  0  0  0  0  0  0  0
    1.9852   -4.3599   -0.7084 C   0  0  1  0  0  0  0  0  0  0  0  0
    3.5335   -4.3641   -0.8015 C   0  0  0  0  0  0  0  0  0  0  0  0
    4.0815   -3.1046   -0.1666 C   0  0  0  0  0  0  0  0  0  0  0  0
    3.9599   -4.4001   -2.2380 C   0  0  0  0  0  0  0  0  0  0  0  0
    1.4419   -5.2573   -1.6609 N   0  0  0  0  0  0  0  0  0  0  0  0
    0.7282   -4.7938   -2.7542 C   0  0  0  0  0  0  0  0  0  0  0  0
    0.5426   -3.5109   -2.8589 O   0  0  0  0  0  0  0  0  0  0  0  0
    0.1248   -5.5570   -3.8756 C   0  0  1  0  0  0  0  0  0  0  0  0
   -0.6297   -6.7805   -3.6176 C   0  0  0  0  0  0  0  0  0  0  0  0
    0.1476   -7.9041   -2.9662 C   0  0  0  0  0  0  0  0  0  0  0  0
   -1.9163   -6.6145   -2.8163 C   0  0  0  0  0  0  0  0  0  0  0  0
   -0.5347   -4.5457   -4.7194 N   0  0  0  0  0  0  0  0  0  0  0  0
   -1.7840   -3.9264   -4.3440 C   0  0  0  0  0  0  0  0  0  0  0  0
    0.1060   -4.1610   -5.9511 C   0  0  0  0  0  0  0  0  0  0  0  0
   -0.4961   -3.2965   -6.6486 O   0  0  0  0  0  0  0  0  0  0  0  0
    1.3013   -4.7124   -6.3039 O   0  0  0  0  0  0  0  0  0  0  0  0
    2.0556   -4.3296   -7.4920 C   0  0  0  0  0  0  0  0  0  0  0  0
    2.3072   -2.8470   -7.2420 C   0  0  0  0  0  0  0  0  0  0  0  0
    1.5797   -1.8597   -7.8337 C   0  0  0  0  0  0  0  0  0  0  0  0
    1.7578   -0.5256   -7.4469 C   0  0  0  0  0  0  0  0  0  0  0  0
    2.6536   -0.1649   -6.4769 C   0  0  0  0  0  0  0  0  0  0  0  0
    3.3821   -1.2272   -5.9042 C   0  0  0  0  0  0  0  0  0  0  0  0
    3.2133   -2.5214   -6.2774 C   0  0  0  0  0  0  0  0  0  0  0  0
    2.8784    1.1276   -5.9846 N   0  0  0  0  0  0  0  0  0  0  0  0
    2.3532    2.3572   -6.4940 C   0  0  0  0  0  0  0  0  0  0  0  0
    1.6328    2.2428   -7.5053 O   0  0  0  0  0  0  0  0  0  0  0  0
    2.5842    3.6768   -5.9333 C   0  0  1  0  0  0  0  0  0  0  0  0
    1.4183    4.5453   -5.6325 C   0  0  0  0  0  0  0  0  0  0  0  0
    0.4995    5.0349   -6.6533 C   0  0  0  0  0  0  0  0  0  0  0  0
   -0.3287    4.2252   -7.5339 C   0  0  0  0  0  0  0  0  0  0  0  0
   -1.2534    3.2930   -6.9535 N   0  0  0  0  0  0  0  0  0  0  0  0
   -2.2775    3.7789   -6.1106 C   0  0  0  0  0  0  0  0  0  0  0  0
   -2.4570    4.9822   -5.8198 O   0  0  0  0  0  0  0  0  0  0  0  0
   -3.1944    2.8222   -5.5307 N   0  0  0  0  0  0  0  0  0  0  0  0
    3.5146    3.5866   -4.8287 N   0  0  0  0  0  0  0  0  0  0  0  0
    3.5444    4.2495   -3.5962 C   0  0  0  0  0  0  0  0  0  0  0  0
    2.7236    5.0826   -3.1496 O   0  0  0  0  0  0  0  0  0  0  0  0
    4.7021    3.9333   -2.6893 C   0  0  1  0  0  0  0  0  0  0  0  0
    5.8579    4.7755   -3.1912 C   0  0  0  0  0  0  0  0  0  0  0  0
    5.5455    6.2653   -3.1872 C   0  0  0  0  0  0  0  0  0  0  0  0
    6.2943    4.3814   -4.5604 C   0  0  0  0  0  0  0  0  0  0  0  0
    4.4049    4.2314   -1.3205 N   0  0  0  0  0  0  0  0  0  0  0  0
    3.9245    3.2561   -0.4364 C   0  0  0  0  0  0  0  0  0  0  0  0
    3.7178    2.0838   -1.0000 O   0  0  0  0  0  0  0  0  0  0  0  0
    3.6122    3.2797    0.9731 C   0  0  0  0  0  0  0  0  0  0  0  0
    2.2556    2.6942    1.3431 C   0  0  0  0  0  0  0  0  0  0  0  0
    1.1672    3.6311    0.7528 C   0  0  0  0  0  0  0  0  0  0  0  0
    1.3941    4.9940    1.3694 C   0  0  0  0  0  0  0  0  0  0  0  0
    0.3813    5.9880    0.8784 C   0  0  0  0  0  0  0  0  0  0  0  0
    0.6758    7.2860    1.5145 N   0  0  0  0  0  0  0  0  0  0  0  0
    1.5395    8.3275    1.1272 C   0  0  0  0  0  0  0  0  0  0  0  0
    2.2443    8.3049    0.0802 O   0  0  0  0  0  0  0  0  0  0  0  0
    1.4261    9.3491    2.1586 C   0  0  0  0  0  0  0  0  0  0  0  0
    0.5851    8.9867    3.0937 C   0  0  0  0  0  0  0  0  0  0  0  0
    0.0688    7.6789    2.7449 C   0  0  0  0  0  0  0  0  0  0  0  0
   -0.7778    7.0105    3.4289 O   0  0  0  0  0  0  0  0  0  0  0  0
    3.4683   -5.7946    2.2119 H   0  0  0  0  0  0  0  0  0  0  0  0
    4.3930   -4.6741    3.2291 H   0  0  0  0  0  0  0  0  0  0  0  0
    4.2283   -6.3734    3.7058 H   0  0  0  0  0  0  0  0  0  0  0  0
    2.7134   -5.5110    5.0880 H   0  0  0  0  0  0  0  0  0  0  0  0
    2.5477   -3.9771    4.2925 H   0  0  0  0  0  0  0  0  0  0  0  0
    0.5630   -5.4134    4.7074 H   0  0  0  0  0  0  0  0  0  0  0  0
    1.5185   -7.4889    2.6855 H   0  0  0  0  0  0  0  0  0  0  0  0
    1.7981   -7.5136    4.4512 H   0  0  0  0  0  0  0  0  0  0  0  0
    0.1143   -7.4488    3.7844 H   0  0  0  0  0  0  0  0  0  0  0  0
   -0.6775   -5.6747    2.8674 H   0  0  0  0  0  0  0  0  0  0  0  0
    0.5776   -2.9351    2.9279 H   0  0  0  0  0  0  0  0  0  0  0  0
   -2.1278   -4.0889    2.0406 H   0  0  0  0  0  0  0  0  0  0  0  0
   -0.9353   -3.2966    1.0250 H   0  0  0  0  0  0  0  0  0  0  0  0
    0.2155   -0.0590    0.6677 H   0  0  0  0  0  0  0  0  0  0  0  0
   -0.3809   -1.6651   -0.0413 H   0  0  0  0  0  0  0  0  0  0  0  0
   -1.7179   -0.5500   -1.4954 H   0  0  0  0  0  0  0  0  0  0  0  0
   -0.8341    0.9313   -1.0648 H   0  0  0  0  0  0  0  0  0  0  0  0
   -2.9062    1.6322   -0.2745 H   0  0  0  0  0  0  0  0  0  0  0  0
   -3.4408   -0.1207   -0.0830 H   0  0  0  0  0  0  0  0  0  0  0  0
   -1.2773    1.2865    1.5156 H   0  0  0  0  0  0  0  0  0  0  0  0
   -4.0281    0.3432    2.4801 H   0  0  0  0  0  0  0  0  0  0  0  0
   -1.8338    0.2099    4.0582 H   0  0  0  0  0  0  0  0  0  0  0  0
   -1.2132    2.6586    4.6986 H   0  0  0  0  0  0  0  0  0  0  0  0
   -0.4594    1.7615    3.3761 H   0  0  0  0  0  0  0  0  0  0  0  0
   -1.7372    3.0526    3.0623 H   0  0  0  0  0  0  0  0  0  0  0  0
   -1.5967    1.5957    6.3585 H   0  0  0  0  0  0  0  0  0  0  0  0
   -4.4843    2.1642    7.1533 H   0  0  0  0  0  0  0  0  0  0  0  0
   -2.8757    3.3527    9.0726 H   0  0  0  0  0  0  0  0  0  0  0  0
   -3.4302    4.2713    7.5682 H   0  0  0  0  0  0  0  0  0  0  0  0
   -1.8123    3.4684    7.6248 H   0  0  0  0  0  0  0  0  0  0  0  0
   -3.6936    1.3729    9.4366 H   0  0  0  0  0  0  0  0  0  0  0  0
   -5.2811   -0.2179    9.4782 H   0  0  0  0  0  0  0  0  0  0  0  0
   -6.1386   -2.4167    8.9910 H   0  0  0  0  0  0  0  0  0  0  0  0
   -5.0450   -3.7961    7.3219 H   0  0  0  0  0  0  0  0  0  0  0  0
   -3.0630   -2.9997    6.1091 H   0  0  0  0  0  0  0  0  0  0  0  0
   -2.1654   -0.7006    6.6431 H   0  0  0  0  0  0  0  0  0  0  0  0
   -1.4620    0.1214    8.7820 H   0  0  0  0  0  0  0  0  0  0  0  0
   -5.0075    1.6703    0.8957 H   0  0  0  0  0  0  0  0  0  0  0  0
   -5.5440    1.9946    2.5487 H   0  0  0  0  0  0  0  0  0  0  0  0
   -5.1346    3.3507    1.4899 H   0  0  0  0  0  0  0  0  0  0  0  0
   -0.0277   -1.6525    4.7344 H   0  0  0  0  0  0  0  0  0  0  0  0
   -0.6166   -2.4896    6.1488 H   0  0  0  0  0  0  0  0  0  0  0  0
    0.9417   -2.9432    5.4937 H   0  0  0  0  0  0  0  0  0  0  0  0
    0.4218   -6.9936    0.3616 H   0  0  0  0  0  0  0  0  0  0  0  0
   -1.0343   -6.3827    1.1288 H   0  0  0  0  0  0  0  0  0  0  0  0
   -0.5845   -5.6033   -0.3743 H   0  0  0  0  0  0  0  0  0  0  0  0
    1.7508   -3.3074   -1.1077 H   0  0  0  0  0  0  0  0  0  0  0  0
    3.9670   -5.2276   -0.2554 H   0  0  0  0  0  0  0  0  0  0  0  0
    5.0259   -2.8481   -0.7299 H   0  0  0  0  0  0  0  0  0  0  0  0
    3.3566   -2.2577   -0.2335 H   0  0  0  0  0  0  0  0  0  0  0  0
    4.4407   -3.2862    0.8774 H   0  0  0  0  0  0  0  0  0  0  0  0
    4.8362   -3.7136   -2.3964 H   0  0  0  0  0  0  0  0  0  0  0  0
    4.2806   -5.4469   -2.4866 H   0  0  0  0  0  0  0  0  0  0  0  0
    3.1954   -4.1119   -2.9580 H   0  0  0  0  0  0  0  0  0  0  0  0
    1.5871   -6.2742   -1.5440 H   0  0  0  0  0  0  0  0  0  0  0  0
    1.0311   -5.8728   -4.5469 H   0  0  0  0  0  0  0  0  0  0  0  0
   -1.0068   -7.2437   -4.5982 H   0  0  0  0  0  0  0  0  0  0  0  0
    1.2141   -7.8771   -3.2383 H   0  0  0  0  0  0  0  0  0  0  0  0
   -0.0286   -7.9137   -1.8504 H   0  0  0  0  0  0  0  0  0  0  0  0
   -0.2106   -8.9024   -3.3830 H   0  0  0  0  0  0  0  0  0  0  0  0
   -1.9608   -7.4031   -1.9986 H   0  0  0  0  0  0  0  0  0  0  0  0
   -2.8166   -6.8071   -3.4315 H   0  0  0  0  0  0  0  0  0  0  0  0
   -1.9376   -5.6613   -2.2676 H   0  0  0  0  0  0  0  0  0  0  0  0
   -2.0513   -3.1008   -5.0666 H   0  0  0  0  0  0  0  0  0  0  0  0
   -1.8037   -3.5534   -3.3007 H   0  0  0  0  0  0  0  0  0  0  0  0
   -2.5826   -4.6736   -4.4604 H   0  0  0  0  0  0  0  0  0  0  0  0
    3.0171   -4.8364   -7.5263 H   0  0  0  0  0  0  0  0  0  0  0  0
    1.4379   -4.4023   -8.3789 H   0  0  0  0  0  0  0  0  0  0  0  0
    0.8669   -2.0910   -8.6165 H   0  0  0  0  0  0  0  0  0  0  0  0
    1.1529    0.1771   -7.9716 H   0  0  0  0  0  0  0  0  0  0  0  0
    4.1266   -1.0219   -5.1212 H   0  0  0  0  0  0  0  0  0  0  0  0
    3.8066   -3.2854   -5.8087 H   0  0  0  0  0  0  0  0  0  0  0  0
    3.4917    1.2079   -5.1374 H   0  0  0  0  0  0  0  0  0  0  0  0
    3.1845    4.3308   -6.6806 H   0  0  0  0  0  0  0  0  0  0  0  0
    0.7886    4.0522   -4.8248 H   0  0  0  0  0  0  0  0  0  0  0  0
    1.8549    5.5028   -5.1642 H   0  0  0  0  0  0  0  0  0  0  0  0
   -0.2435    5.7132   -6.0730 H   0  0  0  0  0  0  0  0  0  0  0  0
    0.9894    5.8259   -7.3281 H   0  0  0  0  0  0  0  0  0  0  0  0
    0.1698    3.9191   -8.4594 H   0  0  0  0  0  0  0  0  0  0  0  0
   -1.0682    5.0299   -8.0022 H   0  0  0  0  0  0  0  0  0  0  0  0
   -1.2072    2.2738   -7.1240 H   0  0  0  0  0  0  0  0  0  0  0  0
   -2.8341    1.9847   -5.0156 H   0  0  0  0  0  0  0  0  0  0  0  0
   -4.2200    3.0262   -5.6695 H   0  0  0  0  0  0  0  0  0  0  0  0
    4.3124    2.8898   -4.9985 H   0  0  0  0  0  0  0  0  0  0  0  0
    4.9718    2.8507   -2.8483 H   0  0  0  0  0  0  0  0  0  0  0  0
    6.7615    4.6779   -2.5397 H   0  0  0  0  0  0  0  0  0  0  0  0
    4.8881    6.5230   -4.0496 H   0  0  0  0  0  0  0  0  0  0  0  0
    6.4882    6.8205   -3.1603 H   0  0  0  0  0  0  0  0  0  0  0  0
    4.9761    6.5346   -2.2902 H   0  0  0  0  0  0  0  0  0  0  0  0
    7.2780    4.9354   -4.7678 H   0  0  0  0  0  0  0  0  0  0  0  0
    5.6190    4.7837   -5.3108 H   0  0  0  0  0  0  0  0  0  0  0  0
    6.5831    3.3249   -4.6809 H   0  0  0  0  0  0  0  0  0  0  0  0
    4.5242    5.2059   -0.8920 H   0  0  0  0  0  0  0  0  0  0  0  0
    4.3385    2.5046    1.4439 H   0  0  0  0  0  0  0  0  0  0  0  0
    3.8067    4.1698    1.5505 H   0  0  0  0  0  0  0  0  0  0  0  0
    2.1503    2.7213    2.4196 H   0  0  0  0  0  0  0  0  0  0  0  0
    2.0681    1.7024    0.9423 H   0  0  0  0  0  0  0  0  0  0  0  0
    1.2611    3.7271   -0.3331 H   0  0  0  0  0  0  0  0  0  0  0  0
    0.1724    3.2681    1.0035 H   0  0  0  0  0  0  0  0  0  0  0  0
    1.5017    4.9816    2.4710 H   0  0  0  0  0  0  0  0  0  0  0  0
    2.3844    5.3408    0.9072 H   0  0  0  0  0  0  0  0  0  0  0  0
    0.4236    6.0457   -0.2167 H   0  0  0  0  0  0  0  0  0  0  0  0
   -0.6439    5.6666    1.1317 H   0  0  0  0  0  0  0  0  0  0  0  0
    1.9590   10.2821    2.1685 H   0  0  0  0  0  0  0  0  0  0  0  0
    0.2880    9.5177    4.0047 H   0  0  0  0  0  0  0  0  0  0  0  0
  1  2  1  0
  2  3  1  0
  3  4  1  0
  3  5  1  0
  5  6  1  0
  6  7  1  0
  7  8  1  0
  8  9  2  0
  8 10  1  0
 10 11  1  0
 11 12  1  0
 12 13  1  0
 13 14  1  0
 14 15  1  0
 15 16  1  0
 16 17  1  0
 16 18  1  0
 18 19  2  0
 18 20  1  0
 20 21  1  0
 21 22  1  0
 21 23  1  0
 23 24  1  0
 24 25  2  0
 25 26  1  0
 26 27  2  0
 27 28  1  0
 28 29  2  0
 23 30  1  0
 15 31  1  0
 31 32  1  0
  6 33  1  0
 33 34  1  0
  5 35  1  0
 35 36  1  0
 35 37  1  0
 37 38  2  0
 37 39  1  0
 39 40  1  0
 40 41  1  0
 40 42  1  0
 39 43  1  0
 43 44  1  0
 44 45  2  0
 44 46  1  0
 46 47  1  0
 47 48  1  0
 47 49  1  0
 46 50  1  0
 50 51  1  0
 50 52  1  0
 52 53  2  0
 52 54  1  0
 54 55  1  0
 55 56  1  0
 56 57  1  0
 57 58  2  0
 58 59  1  0
 59 60  2  0
 60 61  1  0
 59 62  1  0
 62 63  1  0
 63 64  2  0
 63 65  1  0
 65 66  1  0
 66 67  1  0
 67 68  1  0
 68 69  1  0
 69 70  1  0
 70 71  2  0
 70 72  1  0
 65 73  1  0
 73 74  1  0
 74 75  2  0
 74 76  1  0
 76 77  1  0
 77 78  1  0
 77 79  1  0
 76 80  1  0
 80 81  1  0
 81 82  2  0
 81 83  1  0
 83 84  1  0
 84 85  1  0
 85 86  1  0
 86 87  1  0
 87 88  1  0
 88 89  1  0
 89 90  2  0
 89 91  1  0
 91 92  2  0
 92 93  1  0
 93 94  2  0
 14 10  1  0
 29 24  1  0
 61 56  2  0
 93 88  1  0
  1 95  1  0
  1 96  1  0
  1 97  1  0
  2 98  1  0
  2 99  1  0
  3100  1  1
  4101  1  0
  4102  1  0
  4103  1  0
  5104  1  6
  6105  1  1
  7106  1  0
  7107  1  0
 11108  1  0
 11109  1  0
 12110  1  0
 12111  1  0
 13112  1  0
 13113  1  0
 14114  1  6
 15115  1  1
 16116  1  1
 17117  1  0
 17118  1  0
 17119  1  0
 20120  1  0
 21121  1  6
 22122  1  0
 22123  1  0
 22124  1  0
 23125  1  1
 25126  1  0
 26127  1  0
 27128  1  0
 28129  1  0
 29130  1  0
 30131  1  0
 32132  1  0
 32133  1  0
 32134  1  0
 34135  1  0
 34136  1  0
 34137  1  0
 36138  1  0
 36139  1  0
 36140  1  0
 39141  1  6
 40142  1  0
 41143  1  0
 41144  1  0
 41145  1  0
 42146  1  0
 42147  1  0
 42148  1  0
 43149  1  0
 46150  1  6
 47151  1  0
 48152  1  0
 48153  1  0
 48154  1  0
 49155  1  0
 49156  1  0
 49157  1  0
 51158  1  0
 51159  1  0
 51160  1  0
 55161  1  0
 55162  1  0
 57163  1  0
 58164  1  0
 60165  1  0
 61166  1  0
 62167  1  0
 65168  1  6
 66169  1  0
 66170  1  0
 67171  1  0
 67172  1  0
 68173  1  0
 68174  1  0
 69175  1  0
 72176  1  0
 72177  1  0
 73178  1  0
 76179  1  1
 77180  1  0
 78181  1  0
 78182  1  0
 78183  1  0
 79184  1  0
 79185  1  0
 79186  1  0
 80187  1  0
 83188  1  0
 83189  1  0
 84190  1  0
 84191  1  0
 85192  1  0
 85193  1  0
 86194  1  0
 86195  1  0
 87196  1  0
 87197  1  0
 91198  1  0
 92199  1  0
M  END
$$$$

     RDKit          3D

199202  0  0  0  0  0  0  0  0999 V2000
   -4.1896   -1.0135   -1.4164 C   0  0  0  0  0  0  0  0  0  0  0  0
   -3.2292   -2.2235   -1.2885 C   0  0  0  0  0  0  0  0  0  0  0  0
   -2.2149   -1.8902   -0.2617 C   0  0  2  0  0  0  0  0  0  0  0  0
   -1.3671   -0.7031   -0.6190 C   0  0  0  0  0  0  0  0  0  0  0  0
   -1.4367   -3.0547    0.3486 C   0  0  1  0  0  0  0  0  0  0  0  0
   -2.3171   -4.0302    1.0313 C   0  0  1  0  0  0  0  0  0  0  0  0
   -3.1769   -3.3718    2.1449 C   0  0  0  0  0  0  0  0  0  0  0  0
   -2.3489   -2.8340    3.1938 C   0  0  0  0  0  0  0  0  0  0  0  0
   -1.1485   -3.3291    3.2873 O   0  0  0  0  0  0  0  0  0  0  0  0
   -2.6133   -1.8420    4.1633 N   0  0  0  0  0  0  0  0  0  0  0  0
   -1.5380   -1.5893    5.1807 C   0  0  0  0  0  0  0  0  0  0  0  0
   -2.0587   -0.6616    6.1951 C   0  0  0  0  0  0  0  0  0  0  0  0
   -3.5187   -0.5603    5.9329 C   0  0  0  0  0  0  0  0  0  0  0  0
   -3.6291   -0.9420    4.4964 C   0  0  1  0  0  0  0  0  0  0  0  0
   -3.8754    0.2701    3.6669 C   0  0  1  0  0  0  0  0  0  0  0  0
   -2.7332    1.1992    3.4748 C   0  0  1  0  0  0  0  0  0  0  0  0
   -1.5195    0.6529    2.8039 C   0  0  0  0  0  0  0  0  0  0  0  0
   -3.1877    2.3506    2.6744 C   0  0  0  0  0  0  0  0  0  0  0  0
   -2.8990    2.4038    1.4298 O   0  0  0  0  0  0  0  0  0  0  0  0
   -3.9374    3.4575    3.1675 N   0  0  0  0  0  0  0  0  0  0  0  0
   -4.2577    4.4756    2.1934 C   0  0  2  0  0  0  0  0  0  0  0  0
   -2.9524    5.2430    1.9067 C   0  0  0  0  0  0  0  0  0  0  0  0
   -5.3748    5.3804    2.4866 C   0  0  1  0  0  0  0  0  0  0  0  0
   -5.0453    6.3424    3.5745 C   0  0  0  0  0  0  0  0  0  0  0  0
   -4.0114    6.2736    4.4384 C   0  0  0  0  0  0  0  0  0  0  0  0
   -3.8037    7.2466    5.4241 C   0  0  0  0  0  0  0  0  0  0  0  0
   -4.6806    8.3251    5.5335 C   0  0  0  0  0  0  0  0  0  0  0  0
   -5.7462    8.4121    4.6586 C   0  0  0  0  0  0  0  0  0  0  0  0
   -5.9136    7.4194    3.6896 C   0  0  0  0  0  0  0  0  0  0  0  0
   -5.5915    6.2702    1.3624 O   0  0  0  0  0  0  0  0  0  0  0  0
   -4.3125   -0.0686    2.3581 O   0  0  0  0  0  0  0  0  0  0  0  0
   -5.6216    0.3922    2.1785 C   0  0  0  0  0  0  0  0  0  0  0  0
   -3.0417   -4.8079    0.2038 O   0  0  0  0  0  0  0  0  0  0  0  0
   -2.8210   -6.1796    0.3740 C   0  0  0  0  0  0  0  0  0  0  0  0
   -0.4015   -3.5503   -0.5035 N   0  0  0  0  0  0  0  0  0  0  0  0
    0.9855   -3.2488   -0.0964 C   0  0  0  0  0  0  0  0  0  0  0  0
   -0.5602   -4.2674   -1.6924 C   0  0  0  0  0  0  0  0  0  0  0  0
   -1.7299   -4.6006   -2.1179 O   0  0  0  0  0  0  0  0  0  0  0  0
    0.5348   -4.7160   -2.6033 C   0  0  1  0  0  0  0  0  0  0  0  0
    1.2128   -5.9734   -2.2851 C   0  0  0  0  0  0  0  0  0  0  0  0
    2.2922   -6.1720   -3.3794 C   0  0  0  0  0  0  0  0  0  0  0  0
    1.9115   -6.1450   -0.9959 C   0  0  0  0  0  0  0  0  0  0  0  0
   -0.1309   -5.0008   -3.9318 N   0  0  0  0  0  0  0  0  0  0  0  0
   -0.1172   -4.0387   -4.9180 C   0  0  0  0  0  0  0  0  0  0  0  0
    0.4997   -2.9259   -4.6178 O   0  0  0  0  0  0  0  0  0  0  0  0
   -0.6875   -4.0505   -6.2655 C   0  0  1  0  0  0  0  0  0  0  0  0
   -2.1012   -4.4892   -6.3451 C   0  0  0  0  0  0  0  0  0  0  0  0
   -3.1183   -3.7455   -5.5571 C   0  0  0  0  0  0  0  0  0  0  0  0
   -2.2253   -5.9614   -6.0943 C   0  0  0  0  0  0  0  0  0  0  0  0
   -0.4053   -2.8354   -7.0041 N   0  0  0  0  0  0  0  0  0  0  0  0
    0.3654   -2.9249   -8.2679 C   0  0  0  0  0  0  0  0  0  0  0  0
   -0.8279   -1.5322   -6.5702 C   0  0  0  0  0  0  0  0  0  0  0  0
   -1.4199   -1.3510   -5.4913 O   0  0  0  0  0  0  0  0  0  0  0  0
   -0.5606   -0.4745   -7.3857 O   0  0  0  0  0  0  0  0  0  0  0  0
   -0.8763    0.8635   -7.1412 C   0  0  0  0  0  0  0  0  0  0  0  0
   -0.1637    1.3449   -5.9459 C   0  0  0  0  0  0  0  0  0  0  0  0
    1.1512    1.7863   -6.1619 C   0  0  0  0  0  0  0  0  0  0  0  0
    1.9321    2.2834   -5.1523 C   0  0  0  0  0  0  0  0  0  0  0  0
    1.4230    2.3650   -3.8449 C   0  0  0  0  0  0  0  0  0  0  0  0
    0.1451    1.9390   -3.6236 C   0  0  0  0  0  0  0  0  0  0  0  0
   -0.6431    1.4308   -4.6738 C   0  0  0  0  0  0  0  0  0  0  0  0
    2.3201    2.8936   -2.8899 N   0  0  0  0  0  0  0  0  0  0  0  0
    2.4368    4.2617   -2.5548 C   0  0  0  0  0  0  0  0  0  0  0  0
    1.6683    5.0641   -3.1397 O   0  0  0  0  0  0  0  0  0  0  0  0
    3.4518    4.7361   -1.5363 C   0  0  1  0  0  0  0  0  0  0  0  0
    2.7978    5.5230   -0.4667 C   0  0  0  0  0  0  0  0  0  0  0  0
    2.0694    6.7554   -0.8615 C   0  0  0  0  0  0  0  0  0  0  0  0
    2.9061    7.8044   -1.5507 C   0  0  0  0  0  0  0  0  0  0  0  0
    2.0266    8.9474   -1.8480 N   0  0  0  0  0  0  0  0  0  0  0  0
    2.5100   10.1133   -2.5032 C   0  0  0  0  0  0  0  0  0  0  0  0
    3.7345   10.1214   -2.8209 O   0  0  0  0  0  0  0  0  0  0  0  0
    1.6349   11.1806   -2.7663 N   0  0  0  0  0  0  0  0  0  0  0  0
    4.1963    3.5962   -1.0324 N   0  0  0  0  0  0  0  0  0  0  0  0
    5.1940    2.9131   -1.7546 C   0  0  0  0  0  0  0  0  0  0  0  0
    5.4908    3.2618   -2.9257 O   0  0  0  0  0  0  0  0  0  0  0  0
    5.8641    1.7667   -1.0654 C   0  0  1  0  0  0  0  0  0  0  0  0
    7.3206    1.7479   -1.3980 C   0  0  0  0  0  0  0  0  0  0  0  0
    7.6068    1.5987   -2.8595 C   0  0  0  0  0  0  0  0  0  0  0  0
    8.0603    2.9485   -0.8865 C   0  0  0  0  0  0  0  0  0  0  0  0
    5.6753    1.8067    0.3396 N   0  0  0  0  0  0  0  0  0  0  0  0
    4.7659    0.9889    1.1069 C   0  0  0  0  0  0  0  0  0  0  0  0
    4.0763    0.1882    0.4561 O   0  0  0  0  0  0  0  0  0  0  0  0
    4.7844    1.2171    2.5449 C   0  0  0  0  0  0  0  0  0  0  0  0
    3.7985    0.5112    3.3930 C   0  0  0  0  0  0  0  0  0  0  0  0
    3.9286   -0.9661    3.2842 C   0  0  0  0  0  0  0  0  0  0  0  0
    3.0190   -1.7350    4.1536 C   0  0  0  0  0  0  0  0  0  0  0  0
    3.2852   -1.7376    5.5848 C   0  0  0  0  0  0  0  0  0  0  0  0
    3.3749   -0.5768    6.3679 N   0  0  0  0  0  0  0  0  0  0  0  0
    4.5608    0.1403    6.7526 C   0  0  0  0  0  0  0  0  0  0  0  0
    5.7019   -0.2038    6.3946 O   0  0  0  0  0  0  0  0  0  0  0  0
    4.2119    1.2767    7.5876 C   0  0  0  0  0  0  0  0  0  0  0  0
    2.8933    1.2970    7.7340 C   0  0  0  0  0  0  0  0  0  0  0  0
    2.3133    0.1637    6.9950 C   0  0  0  0  0  0  0  0  0  0  0  0
    1.0822   -0.0489    6.9684 O   0  0  0  0  0  0  0  0  0  0  0  0
   -3.7170   -0.1789   -1.9529 H   0  0  0  0  0  0  0  0  0  0  0  0
   -4.6706   -0.7773   -0.4687 H   0  0  0  0  0  0  0  0  0  0  0  0
   -5.0049   -1.3976   -2.0980 H   0  0  0  0  0  0  0  0  0  0  0  0
   -2.8092   -2.2840   -2.3260 H   0  0  0  0  0  0  0  0  0  0  0  0
   -3.8203   -3.1219   -1.0978 H   0  0  0  0  0  0  0  0  0  0  0  0
   -2.8322   -1.5101    0.6292 H   0  0  0  0  0  0  0  0  0  0  0  0
   -0.8159   -0.8191   -1.5802 H   0  0  0  0  0  0  0  0  0  0  0  0
   -1.9587    0.2487   -0.6038 H   0  0  0  0  0  0  0  0  0  0  0  0
   -0.6029   -0.5643    0.1658 H   0  0  0  0  0  0  0  0  0  0  0  0
   -0.8846   -2.5213    1.2103 H   0  0  0  0  0  0  0  0  0  0  0  0
   -1.6076   -4.6574    1.6803 H   0  0  0  0  0  0  0  0  0  0  0  0
   -3.7802   -4.2181    2.6232 H   0  0  0  0  0  0  0  0  0  0  0  0
   -3.9151   -2.7598    1.6603 H   0  0  0  0  0  0  0  0  0  0  0  0
   -1.3720   -2.5950    5.6801 H   0  0  0  0  0  0  0  0  0  0  0  0
   -0.5879   -1.3514    4.7059 H   0  0  0  0  0  0  0  0  0  0  0  0
   -1.8657   -1.1001    7.2274 H   0  0  0  0  0  0  0  0  0  0  0  0
   -1.5472    0.3301    6.2195 H   0  0  0  0  0  0  0  0  0  0  0  0
   -4.0526   -1.2979    6.5965 H   0  0  0  0  0  0  0  0  0  0  0  0
   -3.9510    0.4368    6.1570 H   0  0  0  0  0  0  0  0  0  0  0  0
   -4.6114   -1.5299    4.4364 H   0  0  0  0  0  0  0  0  0  0  0  0
   -4.7120    0.8177    4.1265 H   0  0  0  0  0  0  0  0  0  0  0  0
   -2.4142    1.6684    4.4620 H   0  0  0  0  0  0  0  0  0  0  0  0
   -0.6243    0.6158    3.4650 H   0  0  0  0  0  0  0  0  0  0  0  0
   -1.1931    1.4004    2.0138 H   0  0  0  0  0  0  0  0  0  0  0  0
   -1.7397   -0.2463    2.2448 H   0  0  0  0  0  0  0  0  0  0  0  0
   -4.2034    3.4357    4.1514 H   0  0  0  0  0  0  0  0  0  0  0  0
   -4.4357    3.9583    1.2067 H   0  0  0  0  0  0  0  0  0  0  0  0
   -2.6084    5.0193    0.8735 H   0  0  0  0  0  0  0  0  0  0  0  0
   -3.0699    6.3057    2.1064 H   0  0  0  0  0  0  0  0  0  0  0  0
   -2.1796    4.8298    2.5712 H   0  0  0  0  0  0  0  0  0  0  0  0
   -6.3580    4.9089    2.6116 H   0  0  0  0  0  0  0  0  0  0  0  0
   -3.2982    5.4866    4.4265 H   0  0  0  0  0  0  0  0  0  0  0  0
   -2.9687    7.1793    6.1058 H   0  0  0  0  0  0  0  0  0  0  0  0
   -4.4754    9.0445    6.3074 H   0  0  0  0  0  0  0  0  0  0  0  0
   -6.4192    9.2329    4.7385 H   0  0  0  0  0  0  0  0  0  0  0  0
   -6.7700    7.5585    3.0422 H   0  0  0  0  0  0  0  0  0  0  0  0
   -5.2087    5.8474    0.5364 H   0  0  0  0  0  0  0  0  0  0  0  0
   -6.0558    0.1855    1.2021 H   0  0  0  0  0  0  0  0  0  0  0  0
   -6.2291   -0.2227    2.9108 H   0  0  0  0  0  0  0  0  0  0  0  0
   -5.7417    1.4338    2.5534 H   0  0  0  0  0  0  0  0  0  0  0  0
   -3.0611   -6.5197    1.4005 H   0  0  0  0  0  0  0  0  0  0  0  0
   -1.8782   -6.5407   -0.0364 H   0  0  0  0  0  0  0  0  0  0  0  0
   -3.6217   -6.6646   -0.2597 H   0  0  0  0  0  0  0  0  0  0  0  0
    1.2165   -3.9407    0.7313 H   0  0  0  0  0  0  0  0  0  0  0  0
    1.0105   -2.2296    0.3986 H   0  0  0  0  0  0  0  0  0  0  0  0
    1.6791   -3.2492   -0.9380 H   0  0  0  0  0  0  0  0  0  0  0  0
    1.1895   -3.8736   -2.7609 H   0  0  0  0  0  0  0  0  0  0  0  0
    0.5122   -6.8436   -2.4032 H   0  0  0  0  0  0  0  0  0  0  0  0
    2.9773   -5.3032   -3.4149 H   0  0  0  0  0  0  0  0  0  0  0  0
    1.7931   -6.2339   -4.3666 H   0  0  0  0  0  0  0  0  0  0  0  0
    2.7686   -7.1354   -3.1700 H   0  0  0  0  0  0  0  0  0  0  0  0
    2.4729   -7.1320   -1.0183 H   0  0  0  0  0  0  0  0  0  0  0  0
    1.2419   -6.1276   -0.1237 H   0  0  0  0  0  0  0  0  0  0  0  0
    2.6901   -5.3922   -0.8689 H   0  0  0  0  0  0  0  0  0  0  0  0
   -0.5803   -5.9136   -4.0831 H   0  0  0  0  0  0  0  0  0  0  0  0
   -0.1508   -4.8726   -6.8670 H   0  0  0  0  0  0  0  0  0  0  0  0
   -2.3721   -4.4049   -7.4764 H   0  0  0  0  0  0  0  0  0  0  0  0
   -2.8128   -3.4590   -4.5512 H   0  0  0  0  0  0  0  0  0  0  0  0
   -3.5147   -2.9215   -6.1873 H   0  0  0  0  0  0  0  0  0  0  0  0
   -4.0418   -4.3959   -5.4038 H   0  0  0  0  0  0  0  0  0  0  0  0
   -2.9480   -6.4371   -6.8447 H   0  0  0  0  0  0  0  0  0  0  0  0
   -2.6348   -6.2266   -5.0996 H   0  0  0  0  0  0  0  0  0  0  0  0
   -1.2639   -6.4634   -6.2285 H   0  0  0  0  0  0  0  0  0  0  0  0
    0.6598   -3.9573   -8.4575 H   0  0  0  0  0  0  0  0  0  0  0  0
    1.1954   -2.1840   -8.2741 H   0  0  0  0  0  0  0  0  0  0  0  0
   -0.3404   -2.6133   -9.0672 H   0  0  0  0  0  0  0  0  0  0  0  0
   -0.4789    1.4278   -8.0283 H   0  0  0  0  0  0  0  0  0  0  0  0
   -1.9821    1.0312   -7.0582 H   0  0  0  0  0  0  0  0  0  0  0  0
    1.5945    1.7460   -7.1604 H   0  0  0  0  0  0  0  0  0  0  0  0
    2.9456    2.6124   -5.3829 H   0  0  0  0  0  0  0  0  0  0  0  0
   -0.2350    2.0045   -2.6172 H   0  0  0  0  0  0  0  0  0  0  0  0
   -1.6437    1.1141   -4.4669 H   0  0  0  0  0  0  0  0  0  0  0  0
    2.9454    2.1901   -2.4009 H   0  0  0  0  0  0  0  0  0  0  0  0
    4.0972    5.4124   -2.1654 H   0  0  0  0  0  0  0  0  0  0  0  0
    2.0237    4.8548    0.0409 H   0  0  0  0  0  0  0  0  0  0  0  0
    3.5666    5.7183    0.3300 H   0  0  0  0  0  0  0  0  0  0  0  0
    1.1797    6.5648   -1.4718 H   0  0  0  0  0  0  0  0  0  0  0  0
    1.7672    7.2471    0.1240 H   0  0  0  0  0  0  0  0  0  0  0  0
    3.3007    7.4712   -2.5314 H   0  0  0  0  0  0  0  0  0  0  0  0
    3.6960    8.2412   -0.8808 H   0  0  0  0  0  0  0  0  0  0  0  0
    1.0045    8.9255   -1.5749 H   0  0  0  0  0  0  0  0  0  0  0  0
    0.6479   11.1426   -2.4158 H   0  0  0  0  0  0  0  0  0  0  0  0
    1.8917   12.0340   -3.2981 H   0  0  0  0  0  0  0  0  0  0  0  0
    3.9442    3.2852   -0.0556 H   0  0  0  0  0  0  0  0  0  0  0  0
    5.4063    0.8126   -1.4487 H   0  0  0  0  0  0  0  0  0  0  0  0
    7.8055    0.8577   -0.8904 H   0  0  0  0  0  0  0  0  0  0  0  0
    8.6021    1.1243   -2.9674 H   0  0  0  0  0  0  0  0  0  0  0  0
    6.9025    0.9185   -3.3807 H   0  0  0  0  0  0  0  0  0  0  0  0
    7.6920    2.5846   -3.3789 H   0  0  0  0  0  0  0  0  0  0  0  0
    8.5824    3.5312   -1.6755 H   0  0  0  0  0  0  0  0  0  0  0  0
    7.3933    3.6815   -0.3723 H   0  0  0  0  0  0  0  0  0  0  0  0
    8.8248    2.6941   -0.1086 H   0  0  0  0  0  0  0  0  0  0  0  0
    6.2767    2.5184    0.8717 H   0  0  0  0  0  0  0  0  0  0  0  0
    4.6308    2.3271    2.7180 H   0  0  0  0  0  0  0  0  0  0  0  0
    5.8036    0.9702    2.9678 H   0  0  0  0  0  0  0  0  0  0  0  0
    3.8798    0.9029    4.4034 H   0  0  0  0  0  0  0  0  0  0  0  0
    2.7265    0.8206    3.0986 H   0  0  0  0  0  0  0  0  0  0  0  0
    3.8420   -1.2490    2.2061 H   0  0  0  0  0  0  0  0  0  0  0  0
    5.0249   -1.1912    3.5129 H   0  0  0  0  0  0  0  0  0  0  0  0
    2.9466   -2.7778    3.7177 H   0  0  0  0  0  0  0  0  0  0  0  0
    1.9828   -1.2839    3.9958 H   0  0  0  0  0  0  0  0  0  0  0  0
    4.2657   -2.3150    5.8138 H   0  0  0  0  0  0  0  0  0  0  0  0
    2.4911   -2.4457    6.0465 H   0  0  0  0  0  0  0  0  0  0  0  0
    4.9377    1.9545    7.9960 H   0  0  0  0  0  0  0  0  0  0  0  0
    2.3963    2.0564    8.3189 H   0  0  0  0  0  0  0  0  0  0  0  0
  1  2  1  0
  2  3  1  0
  3  4  1  0
  3  5  1  0
  5  6  1  0
  6  7  1  0
  7  8  1  0
  8  9  2  0
  8 10  1  0
 10 11  1  0
 11 12  1  0
 12 13  1  0
 13 14  1  0
 14 15  1  0
 15 16  1  0
 16 17  1  0
 16 18  1  0
 18 19  2  0
 18 20  1  0
 20 21  1  0
 21 22  1  0
 21 23  1  0
 23 24  1  0
 24 25  2  0
 25 26  1  0
 26 27  2  0
 27 28  1  0
 28 29  2  0
 23 30  1  0
 15 31  1  0
 31 32  1  0
  6 33  1  0
 33 34  1  0
  5 35  1  0
 35 36  1  0
 35 37  1  0
 37 38  2  0
 37 39  1  0
 39 40  1  0
 40 41  1  0
 40 42  1  0
 39 43  1  0
 43 44  1  0
 44 45  2  0
 44 46  1  0
 46 47  1  0
 47 48  1  0
 47 49  1  0
 46 50  1  0
 50 51  1  0
 50 52  1  0
 52 53  2  0
 52 54  1  0
 54 55  1  0
 55 56  1  0
 56 57  1  0
 57 58  2  0
 58 59  1  0
 59 60  2  0
 60 61  1  0
 59 62  1  0
 62 63  1  0
 63 64  2  0
 63 65  1  0
 65 66  1  0
 66 67  1  0
 67 68  1  0
 68 69  1  0
 69 70  1  0
 70 71  2  0
 70 72  1  0
 65 73  1  0
 73 74  1  0
 74 75  2  0
 74 76  1  0
 76 77  1  0
 77 78  1  0
 77 79  1  0
 76 80  1  0
 80 81  1  0
 81 82  2  0
 81 83  1  0
 83 84  1  0
 84 85  1  0
 85 86  1  0
 86 87  1  0
 87 88  1  0
 88 89  1  0
 89 90  2  0
 89 91  1  0
 91 92  2  0
 92 93  1  0
 93 94  2  0
 14 10  1  0
 29 24  1  0
 61 56  2  0
 93 88  1  0
  1 95  1  0
  1 96  1  0
  1 97  1  0
  2 98  1  0
  2 99  1  0
  3100  1  1
  4101  1  0
  4102  1  0
  4103  1  0
  5104  1  1
  6105  1  1
  7106  1  0
  7107  1  0
 11108  1  0
 11109  1  0
 12110  1  0
 12111  1  0
 13112  1  0
 13113  1  0
 14114  1  1
 15115  1  1
 16116  1  1
 17117  1  0
 17118  1  0
 17119  1  0
 20120  1  0
 21121  1  6
 22122  1  0
 22123  1  0
 22124  1  0
 23125  1  1
 25126  1  0
 26127  1  0
 27128  1  0
 28129  1  0
 29130  1  0
 30131  1  0
 32132  1  0
 32133  1  0
 32134  1  0
 34135  1  0
 34136  1  0
 34137  1  0
 36138  1  0
 36139  1  0
 36140  1  0
 39141  1  6
 40142  1  0
 41143  1  0
 41144  1  0
 41145  1  0
 42146  1  0
 42147  1  0
 42148  1  0
 43149  1  0
 46150  1  6
 47151  1  0
 48152  1  0
 48153  1  0
 48154  1  0
 49155  1  0
 49156  1  0
 49157  1  0
 51158  1  0
 51159  1  0
 51160  1  0
 55161  1  0
 55162  1  0
 57163  1  0
 58164  1  0
 60165  1  0
 61166  1  0
 62167  1  0
 65168  1  6
 66169  1  0
 66170  1  0
 67171  1  0
 67172  1  0
 68173  1  0
 68174  1  0
 69175  1  0
 72176  1  0
 72177  1  0
 73178  1  0
 76179  1  6
 77180  1  0
 78181  1  0
 78182  1  0
 78183  1  0
 79184  1  0
 79185  1  0
 79186  1  0
 80187  1  0
 83188  1  0
 83189  1  0
 84190  1  0
 84191  1  0
 85192  1  0
 85193  1  0
 86194  1  0
 86195  1  0
 87196  1  0
 87197  1  0
 91198  1  0
 92199  1  0
M  END
$$$$

     RDKit          3D

199202  0  0  0  0  0  0  0  0999 V2000
   -2.3869    2.4180    4.1179 C   0  0  0  0  0  0  0  0  0  0  0  0
   -2.5365    1.3589    3.0442 C   0  0  0  0  0  0  0  0  0  0  0  0
   -3.3935    1.9043    1.8822 C   0  0  2  0  0  0  0  0  0  0  0  0
   -4.6983    2.2440    2.4807 C   0  0  0  0  0  0  0  0  0  0  0  0
   -3.3240    0.9795    0.7220 C   0  0  1  0  0  0  0  0  0  0  0  0
   -3.8259   -0.4427    1.0044 C   0  0  1  0  0  0  0  0  0  0  0  0
   -5.2471   -0.6129    0.8571 C   0  0  0  0  0  0  0  0  0  0  0  0
   -5.9039   -1.8497    1.1478 C   0  0  0  0  0  0  0  0  0  0  0  0
   -7.1340   -1.8913    0.5718 O   0  0  0  0  0  0  0  0  0  0  0  0
   -5.6980   -3.0325    1.8430 N   0  0  0  0  0  0  0  0  0  0  0  0
   -6.8614   -4.0104    1.8644 C   0  0  0  0  0  0  0  0  0  0  0  0
   -6.7123   -4.7977    3.1145 C   0  0  0  0  0  0  0  0  0  0  0  0
   -5.5116   -4.2316    3.8409 C   0  0  0  0  0  0  0  0  0  0  0  0
   -4.7257   -3.7142    2.6376 C   0  0  1  0  0  0  0  0  0  0  0  0
   -3.9531   -4.7912    1.9567 C   0  0  1  0  0  0  0  0  0  0  0  0
   -3.1348   -5.5724    2.9555 C   0  0  1  0  0  0  0  0  0  0  0  0
   -2.3510   -6.6406    2.1481 C   0  0  0  0  0  0  0  0  0  0  0  0
   -2.1284   -4.8493    3.7193 C   0  0  0  0  0  0  0  0  0  0  0  0
   -2.2619   -4.8485    5.0009 O   0  0  0  0  0  0  0  0  0  0  0  0
   -1.0147   -4.1510    3.2233 N   0  0  0  0  0  0  0  0  0  0  0  0
   -0.0962   -3.5085    4.1473 C   0  0  2  0  0  0  0  0  0  0  0  0
   -0.0722   -2.0191    4.0456 C   0  0  0  0  0  0  0  0  0  0  0  0
    1.2921   -4.0595    3.8932 C   0  0  1  0  0  0  0  0  0  0  0  0
    2.3365   -3.4996    4.7612 C   0  0  0  0  0  0  0  0  0  0  0  0
    3.2959   -2.5919    4.3476 C   0  0  0  0  0  0  0  0  0  0  0  0
    4.2722   -2.1106    5.2271 C   0  0  0  0  0  0  0  0  0  0  0  0
    4.3084   -2.5249    6.5349 C   0  0  0  0  0  0  0  0  0  0  0  0
    3.3592   -3.4251    6.9556 C   0  0  0  0  0  0  0  0  0  0  0  0
    2.3872   -3.9071    6.0856 C   0  0  0  0  0  0  0  0  0  0  0  0
    1.1737   -5.4549    4.1224 O   0  0  0  0  0  0  0  0  0  0  0  0
   -4.8882   -5.7287    1.4332 O   0  0  0  0  0  0  0  0  0  0  0  0
   -4.6784   -5.8807    0.0698 C   0  0  0  0  0  0  0  0  0  0  0  0
   -3.1559   -1.2710    0.0381 O   0  0  0  0  0  0  0  0  0  0  0  0
   -2.0516   -1.8471    0.6544 C   0  0  0  0  0  0  0  0  0  0  0  0
   -3.5675    1.5456   -0.5708 N   0  0  0  0  0  0  0  0  0  0  0  0
   -4.8509    1.9271   -1.1081 C   0  0  0  0  0  0  0  0  0  0  0  0
   -2.3959    1.6886   -1.4043 C   0  0  0  0  0  0  0  0  0  0  0  0
   -1.3027    1.1702   -0.9677 O   0  0  0  0  0  0  0  0  0  0  0  0
   -2.3194    2.3632   -2.6928 C   0  0  1  0  0  0  0  0  0  0  0  0
   -2.2845    3.8826   -2.4383 C   0  0  0  0  0  0  0  0  0  0  0  0
   -2.2178    4.6402   -3.7404 C   0  0  0  0  0  0  0  0  0  0  0  0
   -1.1029    4.2517   -1.5708 C   0  0  0  0  0  0  0  0  0  0  0  0
   -1.1187    2.0408   -3.4545 N   0  0  0  0  0  0  0  0  0  0  0  0
   -1.1165    1.8285   -4.8545 C   0  0  0  0  0  0  0  0  0  0  0  0
   -2.2022    1.9134   -5.4898 O   0  0  0  0  0  0  0  0  0  0  0  0
    0.0940    1.5176   -5.6334 C   0  0  1  0  0  0  0  0  0  0  0  0
    0.5748    0.0915   -5.4714 C   0  0  0  0  0  0  0  0  0  0  0  0
   -0.4406   -0.9398   -5.8888 C   0  0  0  0  0  0  0  0  0  0  0  0
    1.0166   -0.2322   -4.0631 C   0  0  0  0  0  0  0  0  0  0  0  0
   -0.0320    1.8176   -7.0448 N   0  0  0  0  0  0  0  0  0  0  0  0
   -0.9609    1.1805   -7.9435 C   0  0  0  0  0  0  0  0  0  0  0  0
    0.8354    2.8322   -7.5981 C   0  0  0  0  0  0  0  0  0  0  0  0
    0.7999    3.1168   -8.8239 O   0  0  0  0  0  0  0  0  0  0  0  0
    1.7409    3.5356   -6.8104 O   0  0  0  0  0  0  0  0  0  0  0  0
    2.6274    4.5276   -7.2936 C   0  0  0  0  0  0  0  0  0  0  0  0
    3.3934    5.0314   -6.1151 C   0  0  0  0  0  0  0  0  0  0  0  0
    4.4677    4.2453   -5.7242 C   0  0  0  0  0  0  0  0  0  0  0  0
    5.2133    4.6518   -4.6459 C   0  0  0  0  0  0  0  0  0  0  0  0
    4.9034    5.8351   -3.9513 C   0  0  0  0  0  0  0  0  0  0  0  0
    3.8531    6.6081   -4.3336 C   0  0  0  0  0  0  0  0  0  0  0  0
    3.1012    6.1754   -5.4369 C   0  0  0  0  0  0  0  0  0  0  0  0
    5.7514    6.0688   -2.8166 N   0  0  0  0  0  0  0  0  0  0  0  0
    5.2240    5.5860   -1.5916 C   0  0  0  0  0  0  0  0  0  0  0  0
    4.0989    5.0582   -1.6115 O   0  0  0  0  0  0  0  0  0  0  0  0
    6.0153    5.6974   -0.2661 C   0  0  1  0  0  0  0  0  0  0  0  0
    6.2808    7.0995   -0.0613 C   0  0  0  0  0  0  0  0  0  0  0  0
    7.0863    7.4982    1.1215 C   0  0  0  0  0  0  0  0  0  0  0  0
    6.6217    7.1473    2.4787 C   0  0  0  0  0  0  0  0  0  0  0  0
    6.5725    5.7535    2.7787 N   0  0  0  0  0  0  0  0  0  0  0  0
    6.1271    5.4046    4.1100 C   0  0  0  0  0  0  0  0  0  0  0  0
    5.8237    6.3680    4.8622 O   0  0  0  0  0  0  0  0  0  0  0  0
    6.0315    4.0702    4.5588 N   0  0  0  0  0  0  0  0  0  0  0  0
    5.0653    5.1437    0.7232 N   0  0  0  0  0  0  0  0  0  0  0  0
    4.7394    3.7866    0.5320 C   0  0  0  0  0  0  0  0  0  0  0  0
    5.2338    3.0820   -0.4149 O   0  0  0  0  0  0  0  0  0  0  0  0
    3.7691    3.0303    1.4054 C   0  0  1  0  0  0  0  0  0  0  0  0
    2.6676    3.9648    1.8385 C   0  0  0  0  0  0  0  0  0  0  0  0
    1.6617    3.2637    2.7282 C   0  0  0  0  0  0  0  0  0  0  0  0
    1.8987    4.5727    0.6947 C   0  0  0  0  0  0  0  0  0  0  0  0
    3.3101    1.8931    0.6572 N   0  0  0  0  0  0  0  0  0  0  0  0
    3.2853    0.5404    1.0367 C   0  0  0  0  0  0  0  0  0  0  0  0
    3.6843    0.1601    2.1595 O   0  0  0  0  0  0  0  0  0  0  0  0
    2.7475   -0.3897   -0.0052 C   0  0  0  0  0  0  0  0  0  0  0  0
    2.5698   -1.7986    0.4339 C   0  0  0  0  0  0  0  0  0  0  0  0
    2.0505   -2.5621   -0.7792 C   0  0  0  0  0  0  0  0  0  0  0  0
    1.7642   -4.0044   -0.5213 C   0  0  0  0  0  0  0  0  0  0  0  0
    1.2988   -4.5834   -1.8542 C   0  0  0  0  0  0  0  0  0  0  0  0
    0.9485   -5.9699   -1.7793 N   0  0  0  0  0  0  0  0  0  0  0  0
   -0.3817   -6.4251   -1.5107 C   0  0  0  0  0  0  0  0  0  0  0  0
   -1.3665   -5.6362   -1.3296 O   0  0  0  0  0  0  0  0  0  0  0  0
   -0.3716   -7.8784   -1.4901 C   0  0  0  0  0  0  0  0  0  0  0  0
    0.8702   -8.2950   -1.7276 C   0  0  0  0  0  0  0  0  0  0  0  0
    1.7444   -7.1455   -1.9176 C   0  0  0  0  0  0  0  0  0  0  0  0
    2.9751   -7.0925   -2.1612 O   0  0  0  0  0  0  0  0  0  0  0  0
   -1.5546    2.0921    4.7818 H   0  0  0  0  0  0  0  0  0  0  0  0
   -3.3044    2.4332    4.7372 H   0  0  0  0  0  0  0  0  0  0  0  0
   -2.2350    3.4281    3.6875 H   0  0  0  0  0  0  0  0  0  0  0  0
   -1.6065    0.9185    2.6987 H   0  0  0  0  0  0  0  0  0  0  0  0
   -3.1551    0.5604    3.5102 H   0  0  0  0  0  0  0  0  0  0  0  0
   -2.8158    2.8407    1.5835 H   0  0  0  0  0  0  0  0  0  0  0  0
   -5.1187    1.4939    3.1647 H   0  0  0  0  0  0  0  0  0  0  0  0
   -5.4174    2.5689    1.7137 H   0  0  0  0  0  0  0  0  0  0  0  0
   -4.6154    3.1741    3.1449 H   0  0  0  0  0  0  0  0  0  0  0  0
   -2.1714    0.7697    0.6709 H   0  0  0  0  0  0  0  0  0  0  0  0
   -3.3489   -0.7086    1.9621 H   0  0  0  0  0  0  0  0  0  0  0  0
   -5.4461   -0.4129   -0.2887 H   0  0  0  0  0  0  0  0  0  0  0  0
   -5.8591    0.2549    1.2902 H   0  0  0  0  0  0  0  0  0  0  0  0
   -6.9487   -4.5522    0.9368 H   0  0  0  0  0  0  0  0  0  0  0  0
   -7.8100   -3.4274    1.9729 H   0  0  0  0  0  0  0  0  0  0  0  0
   -6.6466   -5.8721    2.9134 H   0  0  0  0  0  0  0  0  0  0  0  0
   -7.5764   -4.6471    3.8372 H   0  0  0  0  0  0  0  0  0  0  0  0
   -5.8006   -3.3849    4.5036 H   0  0  0  0  0  0  0  0  0  0  0  0
   -5.0520   -4.9848    4.4403 H   0  0  0  0  0  0  0  0  0  0  0  0
   -3.9767   -3.0176    3.0935 H   0  0  0  0  0  0  0  0  0  0  0  0
   -3.3182   -4.4005    1.1763 H   0  0  0  0  0  0  0  0  0  0  0  0
   -3.7871   -6.1507    3.6629 H   0  0  0  0  0  0  0  0  0  0  0  0
   -3.0529   -7.3983    1.8149 H   0  0  0  0  0  0  0  0  0  0  0  0
   -1.9047   -6.1198    1.2939 H   0  0  0  0  0  0  0  0  0  0  0  0
   -1.5797   -7.0934    2.8137 H   0  0  0  0  0  0  0  0  0  0  0  0
   -0.8803   -4.1156    2.1967 H   0  0  0  0  0  0  0  0  0  0  0  0
   -0.3847   -3.7568    5.1867 H   0  0  0  0  0  0  0  0  0  0  0  0
    0.6594   -1.6206    3.3128 H   0  0  0  0  0  0  0  0  0  0  0  0
   -1.0805   -1.5579    3.9668 H   0  0  0  0  0  0  0  0  0  0  0  0
    0.3109   -1.6261    5.0417 H   0  0  0  0  0  0  0  0  0  0  0  0
    1.5051   -3.8982    2.8366 H   0  0  0  0  0  0  0  0  0  0  0  0
    3.2582   -2.2744    3.3227 H   0  0  0  0  0  0  0  0  0  0  0  0
    5.0278   -1.3906    4.8846 H   0  0  0  0  0  0  0  0  0  0  0  0
    5.0407   -2.1851    7.2574 H   0  0  0  0  0  0  0  0  0  0  0  0
    3.3653   -3.7719    7.9993 H   0  0  0  0  0  0  0  0  0  0  0  0
    1.6871   -4.6148    6.5097 H   0  0  0  0  0  0  0  0  0  0  0  0
    1.2813   -5.9312    3.2720 H   0  0  0  0  0  0  0  0  0  0  0  0
   -4.7836   -4.9469   -0.5008 H   0  0  0  0  0  0  0  0  0  0  0  0
   -3.7303   -6.3523   -0.1995 H   0  0  0  0  0  0  0  0  0  0  0  0
   -5.5587   -6.5130   -0.2777 H   0  0  0  0  0  0  0  0  0  0  0  0
   -1.3135   -1.0528    0.9696 H   0  0  0  0  0  0  0  0  0  0  0  0
   -1.5428   -2.4914   -0.0628 H   0  0  0  0  0  0  0  0  0  0  0  0
   -2.3783   -2.3680    1.5686 H   0  0  0  0  0  0  0  0  0  0  0  0
   -5.7046    1.8360   -0.4338 H   0  0  0  0  0  0  0  0  0  0  0  0
   -5.0880    1.2242   -1.9703 H   0  0  0  0  0  0  0  0  0  0  0  0
   -4.9095    2.9634   -1.4930 H   0  0  0  0  0  0  0  0  0  0  0  0
   -3.1827    2.1938   -3.3035 H   0  0  0  0  0  0  0  0  0  0  0  0
   -3.1691    4.1679   -1.8955 H   0  0  0  0  0  0  0  0  0  0  0  0
   -2.4172    5.7395   -3.5757 H   0  0  0  0  0  0  0  0  0  0  0  0
   -2.9613    4.3266   -4.4804 H   0  0  0  0  0  0  0  0  0  0  0  0
   -1.1741    4.5967   -4.0870 H   0  0  0  0  0  0  0  0  0  0  0  0
   -0.1570    4.3051   -2.1034 H   0  0  0  0  0  0  0  0  0  0  0  0
   -1.3222    5.2605   -1.1606 H   0  0  0  0  0  0  0  0  0  0  0  0
   -1.0981    3.5813   -0.6646 H   0  0  0  0  0  0  0  0  0  0  0  0
   -0.2338    1.9831   -2.9040 H   0  0  0  0  0  0  0  0  0  0  0  0
    0.9018    2.1773   -5.2384 H   0  0  0  0  0  0  0  0  0  0  0  0
    1.5138   -0.0653   -6.0929 H   0  0  0  0  0  0  0  0  0  0  0  0
   -0.3818   -1.1757   -6.9704 H   0  0  0  0  0  0  0  0  0  0  0  0
   -0.2360   -1.9325   -5.3888 H   0  0  0  0  0  0  0  0  0  0  0  0
   -1.4252   -0.6410   -5.5179 H   0  0  0  0  0  0  0  0  0  0  0  0
    1.7137    0.5744   -3.7449 H   0  0  0  0  0  0  0  0  0  0  0  0
    1.6424   -1.1623   -4.0444 H   0  0  0  0  0  0  0  0  0  0  0  0
    0.1959   -0.2825   -3.3376 H   0  0  0  0  0  0  0  0  0  0  0  0
   -1.4431    1.9407   -8.6341 H   0  0  0  0  0  0  0  0  0  0  0  0
   -1.8178    0.6870   -7.4576 H   0  0  0  0  0  0  0  0  0  0  0  0
   -0.4273    0.5115   -8.6762 H   0  0  0  0  0  0  0  0  0  0  0  0
    2.1117    5.3537   -7.7981 H   0  0  0  0  0  0  0  0  0  0  0  0
    3.3636    4.1040   -7.9982 H   0  0  0  0  0  0  0  0  0  0  0  0
    4.7443    3.3288   -6.2255 H   0  0  0  0  0  0  0  0  0  0  0  0
    6.0474    4.0266   -4.3539 H   0  0  0  0  0  0  0  0  0  0  0  0
    3.6337    7.5037   -3.7979 H   0  0  0  0  0  0  0  0  0  0  0  0
    2.2540    6.7570   -5.7788 H   0  0  0  0  0  0  0  0  0  0  0  0
    6.6640    6.5464   -2.8635 H   0  0  0  0  0  0  0  0  0  0  0  0
    6.8587    5.0308   -0.3530 H   0  0  0  0  0  0  0  0  0  0  0  0
    5.2835    7.6571   -0.0778 H   0  0  0  0  0  0  0  0  0  0  0  0
    6.8154    7.5603   -0.9543 H   0  0  0  0  0  0  0  0  0  0  0  0
    7.2248    8.6241    1.0481 H   0  0  0  0  0  0  0  0  0  0  0  0
    8.1217    7.0340    0.9505 H   0  0  0  0  0  0  0  0  0  0  0  0
    7.3447    7.6060    3.2276 H   0  0  0  0  0  0  0  0  0  0  0  0
    5.6418    7.6413    2.7268 H   0  0  0  0  0  0  0  0  0  0  0  0
    6.8200    4.9640    2.1625 H   0  0  0  0  0  0  0  0  0  0  0  0
    6.0284    3.9230    5.6058 H   0  0  0  0  0  0  0  0  0  0  0  0
    5.9663    3.2307    3.9509 H   0  0  0  0  0  0  0  0  0  0  0  0
    4.6543    5.6704    1.4956 H   0  0  0  0  0  0  0  0  0  0  0  0
    4.2900    2.7292    2.3353 H   0  0  0  0  0  0  0  0  0  0  0  0
    3.1602    4.7365    2.4855 H   0  0  0  0  0  0  0  0  0  0  0  0
    2.2165    2.7382    3.5335 H   0  0  0  0  0  0  0  0  0  0  0  0
    1.0148    2.6488    2.1104 H   0  0  0  0  0  0  0  0  0  0  0  0
    1.0123    4.0308    3.2182 H   0  0  0  0  0  0  0  0  0  0  0  0
    0.8147    4.6797    0.8841 H   0  0  0  0  0  0  0  0  0  0  0  0
    2.2532    5.6093    0.4677 H   0  0  0  0  0  0  0  0  0  0  0  0
    1.9824    3.9183   -0.2132 H   0  0  0  0  0  0  0  0  0  0  0  0
    2.9412    2.1397   -0.3231 H   0  0  0  0  0  0  0  0  0  0  0  0
    1.8232    0.0393   -0.4520 H   0  0  0  0  0  0  0  0  0  0  0  0
    3.4934   -0.3797   -0.8403 H   0  0  0  0  0  0  0  0  0  0  0  0
    3.5647   -2.2413    0.6580 H   0  0  0  0  0  0  0  0  0  0  0  0
    1.9357   -1.9543    1.3156 H   0  0  0  0  0  0  0  0  0  0  0  0
    1.1362   -2.0941   -1.2117 H   0  0  0  0  0  0  0  0  0  0  0  0
    2.8250   -2.4885   -1.5891 H   0  0  0  0  0  0  0  0  0  0  0  0
    0.9958   -4.0741    0.2577 H   0  0  0  0  0  0  0  0  0  0  0  0
    2.6424   -4.5666   -0.1889 H   0  0  0  0  0  0  0  0  0  0  0  0
    0.5226   -3.9467   -2.2792 H   0  0  0  0  0  0  0  0  0  0  0  0
    2.1998   -4.5182   -2.5186 H   0  0  0  0  0  0  0  0  0  0  0  0
   -1.2337   -8.5322   -1.3098 H   0  0  0  0  0  0  0  0  0  0  0  0
    1.2153   -9.3377   -1.7797 H   0  0  0  0  0  0  0  0  0  0  0  0
  1  2  1  0
  2  3  1  0
  3  4  1  0
  3  5  1  0
  5  6  1  0
  6  7  1  0
  7  8  1  0
  8  9  2  0
  8 10  1  0
 10 11  1  0
 11 12  1  0
 12 13  1  0
 13 14  1  0
 14 15  1  0
 15 16  1  0
 16 17  1  0
 16 18  1  0
 18 19  2  0
 18 20  1  0
 20 21  1  0
 21 22  1  0
 21 23  1  0
 23 24  1  0
 24 25  2  0
 25 26  1  0
 26 27  2  0
 27 28  1  0
 28 29  2  0
 23 30  1  0
 15 31  1  0
 31 32  1  0
  6 33  1  0
 33 34  1  0
  5 35  1  0
 35 36  1  0
 35 37  1  0
 37 38  2  0
 37 39  1  0
 39 40  1  0
 40 41  1  0
 40 42  1  0
 39 43  1  0
 43 44  1  0
 44 45  2  0
 44 46  1  0
 46 47  1  0
 47 48  1  0
 47 49  1  0
 46 50  1  0
 50 51  1  0
 50 52  1  0
 52 53  2  0
 52 54  1  0
 54 55  1  0
 55 56  1  0
 56 57  1  0
 57 58  2  0
 58 59  1  0
 59 60  2  0
 60 61  1  0
 59 62  1  0
 62 63  1  0
 63 64  2  0
 63 65  1  0
 65 66  1  0
 66 67  1  0
 67 68  1  0
 68 69  1  0
 69 70  1  0
 70 71  2  0
 70 72  1  0
 65 73  1  0
 73 74  1  0
 74 75  2  0
 74 76  1  0
 76 77  1  0
 77 78  1  0
 77 79  1  0
 76 80  1  0
 80 81  1  0
 81 82  2  0
 81 83  1  0
 83 84  1  0
 84 85  1  0
 85 86  1  0
 86 87  1  0
 87 88  1  0
 88 89  1  0
 89 90  2  0
 89 91  1  0
 91 92  2  0
 92 93  1  0
 93 94  2  0
 14 10  1  0
 29 24  1  0
 61 56  2  0
 93 88  1  0
  1 95  1  0
  1 96  1  0
  1 97  1  0
  2 98  1  0
  2 99  1  0
  3100  1  6
  4101  1  0
  4102  1  0
  4103  1  0
  5104  1  6
  6105  1  1
  7106  1  0
  7107  1  0
 11108  1  0
 11109  1  0
 12110  1  0
 12111  1  0
 13112  1  0
 13113  1  0
 14114  1  1
 15115  1  6
 16116  1  1
 17117  1  0
 17118  1  0
 17119  1  0
 20120  1  0
 21121  1  1
 22122  1  0
 22123  1  0
 22124  1  0
 23125  1  6
 25126  1  0
 26127  1  0
 27128  1  0
 28129  1  0
 29130  1  0
 30131  1  0
 32132  1  0
 32133  1  0
 32134  1  0
 34135  1  0
 34136  1  0
 34137  1  0
 36138  1  0
 36139  1  0
 36140  1  0
 39141  1  6
 40142  1  0
 41143  1  0
 41144  1  0
 41145  1  0
 42146  1  0
 42147  1  0
 42148  1  0
 43149  1  0
 46150  1  1
 47151  1  0
 48152  1  0
 48153  1  0
 48154  1  0
 49155  1  0
 49156  1  0
 49157  1  0
 51158  1  0
 51159  1  0
 51160  1  0
 55161  1  0
 55162  1  0
 57163  1  0
 58164  1  0
 60165  1  0
 61166  1  0
 62167  1  0
 65168  1  6
 66169  1  0
 66170  1  0
 67171  1  0
 67172  1  0
 68173  1  0
 68174  1  0
 69175  1  0
 72176  1  0
 72177  1  0
 73178  1  0
 76179  1  1
 77180  1  0
 78181  1  0
 78182  1  0
 78183  1  0
 79184  1  0
 79185  1  0
 79186  1  0
 80187  1  0
 83188  1  0
 83189  1  0
 84190  1  0
 84191  1  0
 85192  1  0
 85193  1  0
 86194  1  0
 86195  1  0
 87196  1  0
 87197  1  0
 91198  1  0
 92199  1  0
M  END
$$$$

     RDKit          3D

199202  0  0  0  0  0  0  0  0999 V2000
    4.4063   -7.0910   -3.4612 C   0  0  0  0  0  0  0  0  0  0  0  0
    4.5717   -6.3587   -2.1132 C   0  0  0  0  0  0  0  0  0  0  0  0
    4.4477   -4.9105   -2.4074 C   0  0  2  0  0  0  0  0  0  0  0  0
    5.5000   -4.4259   -3.3692 C   0  0  0  0  0  0  0  0  0  0  0  0
    4.2254   -3.9896   -1.2547 C   0  0  1  0  0  0  0  0  0  0  0  0
    3.0311   -4.2440   -0.4561 C   0  0  1  0  0  0  0  0  0  0  0  0
    1.6982   -4.3735   -1.1750 C   0  0  0  0  0  0  0  0  0  0  0  0
    1.2113   -3.2144   -1.8738 C   0  0  0  0  0  0  0  0  0  0  0  0
    1.9793   -2.1505   -1.7958 O   0  0  0  0  0  0  0  0  0  0  0  0
    0.0536   -2.9673   -2.6387 N   0  0  0  0  0  0  0  0  0  0  0  0
   -0.0130   -1.4872   -3.1136 C   0  0  0  0  0  0  0  0  0  0  0  0
   -0.0476   -1.7915   -4.5854 C   0  0  0  0  0  0  0  0  0  0  0  0
   -0.9829   -2.9576   -4.6605 C   0  0  0  0  0  0  0  0  0  0  0  0
   -1.1092   -3.4739   -3.1592 C   0  0  1  0  0  0  0  0  0  0  0  0
   -1.7281   -4.7458   -3.3098 C   0  0  1  0  0  0  0  0  0  0  0  0
   -1.9578   -5.8249   -2.3620 C   0  0  1  0  0  0  0  0  0  0  0  0
   -0.7877   -6.5453   -1.7497 C   0  0  0  0  0  0  0  0  0  0  0  0
   -2.9409   -5.4768   -1.2558 C   0  0  0  0  0  0  0  0  0  0  0  0
   -3.9892   -6.1438   -1.0702 O   0  0  0  0  0  0  0  0  0  0  0  0
   -2.6863   -4.3688   -0.3862 N   0  0  0  0  0  0  0  0  0  0  0  0
   -3.6820   -4.1361    0.6637 C   0  0  2  0  0  0  0  0  0  0  0  0
   -4.5575   -2.9994    0.0984 C   0  0  0  0  0  0  0  0  0  0  0  0
   -3.0904   -3.6675    1.9317 C   0  0  1  0  0  0  0  0  0  0  0  0
   -2.3876   -2.3376    1.8159 C   0  0  0  0  0  0  0  0  0  0  0  0
   -3.1884   -1.2071    1.9628 C   0  0  0  0  0  0  0  0  0  0  0  0
   -2.5720    0.0202    1.8501 C   0  0  0  0  0  0  0  0  0  0  0  0
   -1.2166    0.1139    1.6003 C   0  0  0  0  0  0  0  0  0  0  0  0
   -0.4063   -1.0022    1.4506 C   0  0  0  0  0  0  0  0  0  0  0  0
   -1.0361   -2.2432    1.5660 C   0  0  0  0  0  0  0  0  0  0  0  0
   -4.0787   -3.5096    2.8982 O   0  0  0  0  0  0  0  0  0  0  0  0
   -3.0026   -4.4805   -3.9594 O   0  0  0  0  0  0  0  0  0  0  0  0
   -3.0960   -5.0444   -5.1882 C   0  0  0  0  0  0  0  0  0  0  0  0
    3.0329   -5.2808    0.4623 O   0  0  0  0  0  0  0  0  0  0  0  0
    2.7705   -4.7770    1.7567 C   0  0  0  0  0  0  0  0  0  0  0  0
    5.4008   -3.6837   -0.4528 N   0  0  0  0  0  0  0  0  0  0  0  0
    5.9585   -4.7473    0.3430 C   0  0  0  0  0  0  0  0  0  0  0  0
    5.8875   -2.3640   -0.5153 C   0  0  0  0  0  0  0  0  0  0  0  0
    5.1627   -1.5929   -1.3041 O   0  0  0  0  0  0  0  0  0  0  0  0
    6.9954   -1.6852    0.1008 C   0  0  1  0  0  0  0  0  0  0  0  0
    8.3073   -2.0346   -0.6142 C   0  0  0  0  0  0  0  0  0  0  0  0
    8.1723   -1.6496   -2.0587 C   0  0  0  0  0  0  0  0  0  0  0  0
    8.7688   -3.4289   -0.4747 C   0  0  0  0  0  0  0  0  0  0  0  0
    6.9128   -0.2158   -0.0624 N   0  0  0  0  0  0  0  0  0  0  0  0
    7.0659    0.7007    0.9898 C   0  0  0  0  0  0  0  0  0  0  0  0
    7.2602    0.1841    2.1537 O   0  0  0  0  0  0  0  0  0  0  0  0
    7.0355    2.1490    0.9166 C   0  0  1  0  0  0  0  0  0  0  0  0
    6.1918    2.8476   -0.0600 C   0  0  0  0  0  0  0  0  0  0  0  0
    6.5406    2.5451   -1.4963 C   0  0  0  0  0  0  0  0  0  0  0  0
    6.4704    4.3563    0.1294 C   0  0  0  0  0  0  0  0  0  0  0  0
    6.9638    2.7655    2.2544 N   0  0  0  0  0  0  0  0  0  0  0  0
    8.0605    3.4630    2.8656 C   0  0  0  0  0  0  0  0  0  0  0  0
    5.6778    2.6056    2.8905 C   0  0  0  0  0  0  0  0  0  0  0  0
    4.8839    1.8965    2.1856 O   0  0  0  0  0  0  0  0  0  0  0  0
    5.3235    3.1382    4.0858 O   0  0  0  0  0  0  0  0  0  0  0  0
    4.0354    3.0157    4.7070 C   0  0  0  0  0  0  0  0  0  0  0  0
    3.0093    3.6046    3.7827 C   0  0  0  0  0  0  0  0  0  0  0  0
    2.7789    4.9934    3.8056 C   0  0  0  0  0  0  0  0  0  0  0  0
    1.8872    5.5545    2.8715 C   0  0  0  0  0  0  0  0  0  0  0  0
    1.2643    4.7374    1.9577 C   0  0  0  0  0  0  0  0  0  0  0  0
    1.5218    3.3719    1.9811 C   0  0  0  0  0  0  0  0  0  0  0  0
    2.3800    2.7870    2.8760 C   0  0  0  0  0  0  0  0  0  0  0  0
    0.4015    5.1722    0.9250 N   0  0  0  0  0  0  0  0  0  0  0  0
   -0.9915    5.1392    0.8813 C   0  0  0  0  0  0  0  0  0  0  0  0
   -1.5926    4.6882    1.9137 O   0  0  0  0  0  0  0  0  0  0  0  0
   -1.8172    5.5645   -0.2389 C   0  0  1  0  0  0  0  0  0  0  0  0
   -1.5628    4.9078   -1.5653 C   0  0  0  0  0  0  0  0  0  0  0  0
   -0.2478    5.0625   -2.2057 C   0  0  0  0  0  0  0  0  0  0  0  0
    0.1121    6.5095   -2.4903 C   0  0  0  0  0  0  0  0  0  0  0  0
   -0.8368    7.1433   -3.3984 N   0  0  0  0  0  0  0  0  0  0  0  0
   -1.0629    6.6884   -4.7246 C   0  0  0  0  0  0  0  0  0  0  0  0
   -0.4659    5.7021   -5.2445 O   0  0  0  0  0  0  0  0  0  0  0  0
   -2.0171    7.3386   -5.5918 N   0  0  0  0  0  0  0  0  0  0  0  0
   -3.2622    5.4601    0.0641 N   0  0  0  0  0  0  0  0  0  0  0  0
   -3.8917    4.2196    0.2771 C   0  0  0  0  0  0  0  0  0  0  0  0
   -3.1857    3.1518    0.2485 O   0  0  0  0  0  0  0  0  0  0  0  0
   -5.3276    4.0200    0.5350 C   0  0  1  0  0  0  0  0  0  0  0  0
   -6.1118    4.2406   -0.7801 C   0  0  0  0  0  0  0  0  0  0  0  0
   -5.6505    3.2795   -1.8381 C   0  0  0  0  0  0  0  0  0  0  0  0
   -6.0638    5.6712   -1.1930 C   0  0  0  0  0  0  0  0  0  0  0  0
   -5.6376    2.6369    0.9422 N   0  0  0  0  0  0  0  0  0  0  0  0
   -6.5992    2.4861    1.9629 C   0  0  0  0  0  0  0  0  0  0  0  0
   -7.1497    3.5053    2.4946 O   0  0  0  0  0  0  0  0  0  0  0  0
   -7.0433    1.1674    2.4900 C   0  0  0  0  0  0  0  0  0  0  0  0
   -8.1347    1.3757    3.5292 C   0  0  0  0  0  0  0  0  0  0  0  0
   -8.6205    0.0886    4.0709 C   0  0  0  0  0  0  0  0  0  0  0  0
   -7.6781   -0.8405    4.7138 C   0  0  0  0  0  0  0  0  0  0  0  0
   -6.9450   -0.5148    5.9461 C   0  0  0  0  0  0  0  0  0  0  0  0
   -6.0538    0.5936    5.9972 N   0  0  0  0  0  0  0  0  0  0  0  0
   -6.1926    1.9396    6.4190 C   0  0  0  0  0  0  0  0  0  0  0  0
   -7.2693    2.4168    6.8917 O   0  0  0  0  0  0  0  0  0  0  0  0
   -4.9450    2.6747    6.2355 C   0  0  0  0  0  0  0  0  0  0  0  0
   -4.0713    1.8129    5.7212 C   0  0  0  0  0  0  0  0  0  0  0  0
   -4.6820    0.5060    5.5450 C   0  0  0  0  0  0  0  0  0  0  0  0
   -4.1408   -0.5512    5.0810 O   0  0  0  0  0  0  0  0  0  0  0  0
    4.2051   -8.1637   -3.3077 H   0  0  0  0  0  0  0  0  0  0  0  0
    3.4762   -6.6554   -3.9224 H   0  0  0  0  0  0  0  0  0  0  0  0
    5.2227   -6.8647   -4.1655 H   0  0  0  0  0  0  0  0  0  0  0  0
    5.5614   -6.6358   -1.7200 H   0  0  0  0  0  0  0  0  0  0  0  0
    3.7322   -6.7277   -1.4881 H   0  0  0  0  0  0  0  0  0  0  0  0
    3.4882   -4.8199   -3.0283 H   0  0  0  0  0  0  0  0  0  0  0  0
    5.3516   -4.8452   -4.3943 H   0  0  0  0  0  0  0  0  0  0  0  0
    6.5390   -4.7239   -3.0808 H   0  0  0  0  0  0  0  0  0  0  0  0
    5.4105   -3.3190   -3.5151 H   0  0  0  0  0  0  0  0  0  0  0  0
    4.0307   -2.9849   -1.7686 H   0  0  0  0  0  0  0  0  0  0  0  0
    2.8638   -3.3157    0.1957 H   0  0  0  0  0  0  0  0  0  0  0  0
    0.9893   -4.6338   -0.3588 H   0  0  0  0  0  0  0  0  0  0  0  0
    1.7338   -5.2683   -1.8466 H   0  0  0  0  0  0  0  0  0  0  0  0
    0.8784   -0.9588   -2.8536 H   0  0  0  0  0  0  0  0  0  0  0  0
   -0.9634   -1.0745   -2.7889 H   0  0  0  0  0  0  0  0  0  0  0  0
    0.9826   -2.0332   -4.9676 H   0  0  0  0  0  0  0  0  0  0  0  0
   -0.4830   -0.9217   -5.1245 H   0  0  0  0  0  0  0  0  0  0  0  0
   -1.9659   -2.7147   -5.0421 H   0  0  0  0  0  0  0  0  0  0  0  0
   -0.4497   -3.7722   -5.1712 H   0  0  0  0  0  0  0  0  0  0  0  0
   -1.9245   -2.6821   -2.8180 H   0  0  0  0  0  0  0  0  0  0  0  0
   -1.2059   -5.2737   -4.2267 H   0  0  0  0  0  0  0  0  0  0  0  0
   -2.5323   -6.6546   -2.9123 H   0  0  0  0  0  0  0  0  0  0  0  0
   -1.0928   -7.6395   -1.5250 H   0  0  0  0  0  0  0  0  0  0  0  0
   -0.6175   -6.1477   -0.7489 H   0  0  0  0  0  0  0  0  0  0  0  0
    0.0513   -6.6735   -2.4237 H   0  0  0  0  0  0  0  0  0  0  0  0
   -1.8372   -3.7724   -0.4942 H   0  0  0  0  0  0  0  0  0  0  0  0
   -4.3753   -4.9869    0.7436 H   0  0  0  0  0  0  0  0  0  0  0  0
   -5.3981   -2.7809    0.7415 H   0  0  0  0  0  0  0  0  0  0  0  0
   -3.8694   -2.1694   -0.1371 H   0  0  0  0  0  0  0  0  0  0  0  0
   -4.9086   -3.4085   -0.8999 H   0  0  0  0  0  0  0  0  0  0  0  0
   -2.3399   -4.3476    2.3758 H   0  0  0  0  0  0  0  0  0  0  0  0
   -4.2449   -1.2550    2.1617 H   0  0  0  0  0  0  0  0  0  0  0  0
   -3.2015    0.9043    1.9694 H   0  0  0  0  0  0  0  0  0  0  0  0
   -0.7104    1.0738    1.5090 H   0  0  0  0  0  0  0  0  0  0  0  0
    0.6386   -0.8960    1.2543 H   0  0  0  0  0  0  0  0  0  0  0  0
   -0.4596   -3.1653    1.4517 H   0  0  0  0  0  0  0  0  0  0  0  0
   -3.6306   -3.2683    3.7375 H   0  0  0  0  0  0  0  0  0  0  0  0
   -2.3952   -4.7960   -5.9673 H   0  0  0  0  0  0  0  0  0  0  0  0
   -4.1113   -4.7463   -5.5903 H   0  0  0  0  0  0  0  0  0  0  0  0
   -3.2290   -6.1719   -5.0721 H   0  0  0  0  0  0  0  0  0  0  0  0
    3.5715   -4.0599    2.0039 H   0  0  0  0  0  0  0  0  0  0  0  0
    2.7233   -5.6337    2.4442 H   0  0  0  0  0  0  0  0  0  0  0  0
    1.7746   -4.2603    1.6718 H   0  0  0  0  0  0  0  0  0  0  0  0
    5.2382   -5.5427    0.6285 H   0  0  0  0  0  0  0  0  0  0  0  0
    6.7547   -5.3272   -0.1782 H   0  0  0  0  0  0  0  0  0  0  0  0
    6.4617   -4.3337    1.2726 H   0  0  0  0  0  0  0  0  0  0  0  0
    7.1379   -1.9660    1.1588 H   0  0  0  0  0  0  0  0  0  0  0  0
    9.1290   -1.3929   -0.1294 H   0  0  0  0  0  0  0  0  0  0  0  0
    8.1363   -0.5769   -2.2576 H   0  0  0  0  0  0  0  0  0  0  0  0
    7.2363   -2.1075   -2.4629 H   0  0  0  0  0  0  0  0  0  0  0  0
    9.0490   -2.0495   -2.6197 H   0  0  0  0  0  0  0  0  0  0  0  0
    8.6188   -3.8276    0.5592 H   0  0  0  0  0  0  0  0  0  0  0  0
    9.9019   -3.4207   -0.6534 H   0  0  0  0  0  0  0  0  0  0  0  0
    8.4069   -4.1138   -1.2719 H   0  0  0  0  0  0  0  0  0  0  0  0
    6.7193    0.0963   -1.0256 H   0  0  0  0  0  0  0  0  0  0  0  0
    8.1230    2.4185    0.6071 H   0  0  0  0  0  0  0  0  0  0  0  0
    5.0919    2.6935    0.0665 H   0  0  0  0  0  0  0  0  0  0  0  0
    5.7389    1.9481   -2.0035 H   0  0  0  0  0  0  0  0  0  0  0  0
    6.5252    3.5102   -2.1122 H   0  0  0  0  0  0  0  0  0  0  0  0
    7.5568    2.1760   -1.6279 H   0  0  0  0  0  0  0  0  0  0  0  0
    7.5194    4.5755   -0.1526 H   0  0  0  0  0  0  0  0  0  0  0  0
    6.2079    4.7015    1.1328 H   0  0  0  0  0  0  0  0  0  0  0  0
    5.8406    4.9436   -0.5911 H   0  0  0  0  0  0  0  0  0  0  0  0
    8.8183    3.7984    2.1288 H   0  0  0  0  0  0  0  0  0  0  0  0
    8.5413    2.8913    3.6762 H   0  0  0  0  0  0  0  0  0  0  0  0
    7.6778    4.4138    3.3220 H   0  0  0  0  0  0  0  0  0  0  0  0
    3.7925    1.9954    4.9358 H   0  0  0  0  0  0  0  0  0  0  0  0
    4.0903    3.6487    5.6070 H   0  0  0  0  0  0  0  0  0  0  0  0
    3.2739    5.6369    4.5238 H   0  0  0  0  0  0  0  0  0  0  0  0
    1.6719    6.6073    2.8487 H   0  0  0  0  0  0  0  0  0  0  0  0
    1.0238    2.7238    1.2631 H   0  0  0  0  0  0  0  0  0  0  0  0
    2.4751    1.7160    2.8347 H   0  0  0  0  0  0  0  0  0  0  0  0
    0.9267    5.6020    0.0969 H   0  0  0  0  0  0  0  0  0  0  0  0
   -1.6495    6.6665   -0.4343 H   0  0  0  0  0  0  0  0  0  0  0  0
   -2.3417    5.1798   -2.3181 H   0  0  0  0  0  0  0  0  0  0  0  0
   -1.7286    3.7946   -1.4148 H   0  0  0  0  0  0  0  0  0  0  0  0
   -0.3644    4.6083   -3.2569 H   0  0  0  0  0  0  0  0  0  0  0  0
    0.5884    4.5230   -1.8014 H   0  0  0  0  0  0  0  0  0  0  0  0
    0.0559    7.0944   -1.5483 H   0  0  0  0  0  0  0  0  0  0  0  0
    1.1559    6.6272   -2.8415 H   0  0  0  0  0  0  0  0  0  0  0  0
   -1.4137    7.9843   -3.1097 H   0  0  0  0  0  0  0  0  0  0  0  0
   -3.0194    7.0259   -5.4212 H   0  0  0  0  0  0  0  0  0  0  0  0
   -1.7436    8.0340   -6.2980 H   0  0  0  0  0  0  0  0  0  0  0  0
   -3.8412    6.3449    0.1457 H   0  0  0  0  0  0  0  0  0  0  0  0
   -5.7827    4.6961    1.2547 H   0  0  0  0  0  0  0  0  0  0  0  0
   -7.1835    4.0003   -0.5384 H   0  0  0  0  0  0  0  0  0  0  0  0
   -6.4686    2.7134   -2.2999 H   0  0  0  0  0  0  0  0  0  0  0  0
   -5.1033    3.8650   -2.6255 H   0  0  0  0  0  0  0  0  0  0  0  0
   -4.9161    2.5364   -1.4410 H   0  0  0  0  0  0  0  0  0  0  0  0
   -6.9555    5.8499   -1.8553 H   0  0  0  0  0  0  0  0  0  0  0  0
   -5.1268    5.9091   -1.7585 H   0  0  0  0  0  0  0  0  0  0  0  0
   -6.1549    6.3062   -0.3032 H   0  0  0  0  0  0  0  0  0  0  0  0
   -5.1938    1.8102    0.5215 H   0  0  0  0  0  0  0  0  0  0  0  0
   -7.4829    0.5853    1.6742 H   0  0  0  0  0  0  0  0  0  0  0  0
   -6.2058    0.6270    2.9506 H   0  0  0  0  0  0  0  0  0  0  0  0
   -9.0238    1.8576    2.9903 H   0  0  0  0  0  0  0  0  0  0  0  0
   -7.8466    2.0953    4.2799 H   0  0  0  0  0  0  0  0  0  0  0  0
   -9.5103    0.2474    4.7666 H   0  0  0  0  0  0  0  0  0  0  0  0
   -9.1062   -0.4654    3.1917 H   0  0  0  0  0  0  0  0  0  0  0  0
   -6.8696   -1.0655    3.9332 H   0  0  0  0  0  0  0  0  0  0  0  0
   -8.1616   -1.8858    4.8026 H   0  0  0  0  0  0  0  0  0  0  0  0
   -6.3486   -1.4621    6.2024 H   0  0  0  0  0  0  0  0  0  0  0  0
   -7.7133   -0.4147    6.7794 H   0  0  0  0  0  0  0  0  0  0  0  0
   -4.7512    3.7288    6.4677 H   0  0  0  0  0  0  0  0  0  0  0  0
   -3.0385    2.0324    5.4598 H   0  0  0  0  0  0  0  0  0  0  0  0
  1  2  1  0
  2  3  1  0
  3  4  1  0
  3  5  1  0
  5  6  1  0
  6  7  1  0
  7  8  1  0
  8  9  2  0
  8 10  1  0
 10 11  1  0
 11 12  1  0
 12 13  1  0
 13 14  1  0
 14 15  1  0
 15 16  1  0
 16 17  1  0
 16 18  1  0
 18 19  2  0
 18 20  1  0
 20 21  1  0
 21 22  1  0
 21 23  1  0
 23 24  1  0
 24 25  2  0
 25 26  1  0
 26 27  2  0
 27 28  1  0
 28 29  2  0
 23 30  1  0
 15 31  1  0
 31 32  1  0
  6 33  1  0
 33 34  1  0
  5 35  1  0
 35 36  1  0
 35 37  1  0
 37 38  2  0
 37 39  1  0
 39 40  1  0
 40 41  1  0
 40 42  1  0
 39 43  1  0
 43 44  1  0
 44 45  2  0
 44 46  1  0
 46 47  1  0
 47 48  1  0
 47 49  1  0
 46 50  1  0
 50 51  1  0
 50 52  1  0
 52 53  2  0
 52 54  1  0
 54 55  1  0
 55 56  1  0
 56 57  1  0
 57 58  2  0
 58 59  1  0
 59 60  2  0
 60 61  1  0
 59 62  1  0
 62 63  1  0
 63 64  2  0
 63 65  1  0
 65 66  1  0
 66 67  1  0
 67 68  1  0
 68 69  1  0
 69 70  1  0
 70 71  2  0
 70 72  1  0
 65 73  1  0
 73 74  1  0
 74 75  2  0
 74 76  1  0
 76 77  1  0
 77 78  1  0
 77 79  1  0
 76 80  1  0
 80 81  1  0
 81 82  2  0
 81 83  1  0
 83 84  1  0
 84 85  1  0
 85 86  1  0
 86 87  1  0
 87 88  1  0
 88 89  1  0
 89 90  2  0
 89 91  1  0
 91 92  2  0
 92 93  1  0
 93 94  2  0
 14 10  1  0
 29 24  1  0
 61 56  2  0
 93 88  1  0
  1 95  1  0
  1 96  1  0
  1 97  1  0
  2 98  1  0
  2 99  1  0
  3100  1  6
  4101  1  0
  4102  1  0
  4103  1  0
  5104  1  6
  6105  1  1
  7106  1  0
  7107  1  0
 11108  1  0
 11109  1  0
 12110  1  0
 12111  1  0
 13112  1  0
 13113  1  0
 14114  1  1
 15115  1  6
 16116  1  6
 17117  1  0
 17118  1  0
 17119  1  0
 20120  1  0
 21121  1  1
 22122  1  0
 22123  1  0
 22124  1  0
 23125  1  1
 25126  1  0
 26127  1  0
 27128  1  0
 28129  1  0
 29130  1  0
 30131  1  0
 32132  1  0
 32133  1  0
 32134  1  0
 34135  1  0
 34136  1  0
 34137  1  0
 36138  1  0
 36139  1  0
 36140  1  0
 39141  1  1
 40142  1  0
 41143  1  0
 41144  1  0
 41145  1  0
 42146  1  0
 42147  1  0
 42148  1  0
 43149  1  0
 46150  1  6
 47151  1  0
 48152  1  0
 48153  1  0
 48154  1  0
 49155  1  0
 49156  1  0
 49157  1  0
 51158  1  0
 51159  1  0
 51160  1  0
 55161  1  0
 55162  1  0
 57163  1  0
 58164  1  0
 60165  1  0
 61166  1  0
 62167  1  0
 65168  1  6
 66169  1  0
 66170  1  0
 67171  1  0
 67172  1  0
 68173  1  0
 68174  1  0
 69175  1  0
 72176  1  0
 72177  1  0
 73178  1  0
 76179  1  1
 77180  1  0
 78181  1  0
 78182  1  0
 78183  1  0
 79184  1  0
 79185  1  0
 79186  1  0
 80187  1  0
 83188  1  0
 83189  1  0
 84190  1  0
 84191  1  0
 85192  1  0
 85193  1  0
 86194  1  0
 86195  1  0
 87196  1  0
 87197  1  0
 91198  1  0
 92199  1  0
M  END
$$$$

     RDKit          3D

199202  0  0  0  0  0  0  0  0999 V2000
    7.1451    3.2988   -2.2554 C   0  0  0  0  0  0  0  0  0  0  0  0
    5.7227    2.7887   -2.1293 C   0  0  0  0  0  0  0  0  0  0  0  0
    5.6697    1.3128   -1.7228 C   0  0  2  0  0  0  0  0  0  0  0  0
    6.3522    0.4414   -2.7170 C   0  0  0  0  0  0  0  0  0  0  0  0
    4.3579    0.9210   -1.1893 C   0  0  1  0  0  0  0  0  0  0  0  0
    3.1303    1.0319   -1.9989 C   0  0  1  0  0  0  0  0  0  0  0  0
    3.0389    0.5580   -3.3644 C   0  0  0  0  0  0  0  0  0  0  0  0
    1.7054    0.6695   -4.0391 C   0  0  0  0  0  0  0  0  0  0  0  0
    0.6596    0.6537   -3.3545 O   0  0  0  0  0  0  0  0  0  0  0  0
    1.5674    0.7946   -5.4410 N   0  0  0  0  0  0  0  0  0  0  0  0
    2.5774    0.8956   -6.4925 C   0  0  0  0  0  0  0  0  0  0  0  0
    2.1023    2.1415   -7.2290 C   0  0  0  0  0  0  0  0  0  0  0  0
    0.6318    2.1670   -6.9972 C   0  0  0  0  0  0  0  0  0  0  0  0
    0.3172    0.8895   -6.1873 C   0  0  1  0  0  0  0  0  0  0  0  0
    0.0214   -0.1949   -7.1229 C   0  0  1  0  0  0  0  0  0  0  0  0
   -0.1809   -1.5874   -6.6017 C   0  0  1  0  0  0  0  0  0  0  0  0
    0.9610   -2.2085   -5.8744 C   0  0  0  0  0  0  0  0  0  0  0  0
   -1.4850   -1.8239   -5.9335 C   0  0  0  0  0  0  0  0  0  0  0  0
   -2.3694   -2.5975   -6.4576 O   0  0  0  0  0  0  0  0  0  0  0  0
   -1.8632   -1.2436   -4.6974 N   0  0  0  0  0  0  0  0  0  0  0  0
   -3.1662   -1.5668   -4.1697 C   0  0  2  0  0  0  0  0  0  0  0  0
   -3.9228   -0.2725   -3.9198 C   0  0  0  0  0  0  0  0  0  0  0  0
   -3.0102   -2.2295   -2.8356 C   0  0  1  0  0  0  0  0  0  0  0  0
   -2.3074   -3.5205   -3.0162 C   0  0  0  0  0  0  0  0  0  0  0  0
   -0.9305   -3.5251   -3.1383 C   0  0  0  0  0  0  0  0  0  0  0  0
   -0.2261   -4.7012   -3.3135 C   0  0  0  0  0  0  0  0  0  0  0  0
   -0.8630   -5.9404   -3.3766 C   0  0  0  0  0  0  0  0  0  0  0  0
   -2.2525   -5.9264   -3.2519 C   0  0  0  0  0  0  0  0  0  0  0  0
   -2.9460   -4.7392   -3.0768 C   0  0  0  0  0  0  0  0  0  0  0  0
   -2.3706   -1.3849   -1.9640 O   0  0  0  0  0  0  0  0  0  0  0  0
   -1.2266    0.1031   -7.7575 O   0  0  0  0  0  0  0  0  0  0  0  0
   -1.1469    0.0730   -9.1220 C   0  0  0  0  0  0  0  0  0  0  0  0
    2.0201    0.8373   -1.2356 O   0  0  0  0  0  0  0  0  0  0  0  0
    1.3463    1.9315   -0.7908 C   0  0  0  0  0  0  0  0  0  0  0  0
    4.4920   -0.3291   -0.4437 N   0  0  0  0  0  0  0  0  0  0  0  0
    4.6067   -1.6184   -1.0367 C   0  0  0  0  0  0  0  0  0  0  0  0
    4.4801   -0.1558    0.9868 C   0  0  0  0  0  0  0  0  0  0  0  0
    4.4878    1.0821    1.3449 O   0  0  0  0  0  0  0  0  0  0  0  0
    4.4599   -1.1440    2.0213 C   0  0  1  0  0  0  0  0  0  0  0  0
    3.6131   -0.6134    3.1922 C   0  0  0  0  0  0  0  0  0  0  0  0
    4.1649    0.6597    3.7707 C   0  0  0  0  0  0  0  0  0  0  0  0
    3.5758   -1.6268    4.3180 C   0  0  0  0  0  0  0  0  0  0  0  0
    4.1878   -2.4994    1.7330 N   0  0  0  0  0  0  0  0  0  0  0  0
    4.9590   -3.6313    2.0930 C   0  0  0  0  0  0  0  0  0  0  0  0
    6.0345   -3.4851    2.7609 O   0  0  0  0  0  0  0  0  0  0  0  0
    4.4994   -4.9983    1.6784 C   0  0  1  0  0  0  0  0  0  0  0  0
    4.5346   -5.9067    2.8737 C   0  0  0  0  0  0  0  0  0  0  0  0
    4.0590   -7.3235    2.5024 C   0  0  0  0  0  0  0  0  0  0  0  0
    5.9609   -6.0912    3.3417 C   0  0  0  0  0  0  0  0  0  0  0  0
    3.2800   -5.0080    0.9452 N   0  0  0  0  0  0  0  0  0  0  0  0
    3.3604   -5.3253   -0.4965 C   0  0  0  0  0  0  0  0  0  0  0  0
    1.9808   -4.7406    1.4679 C   0  0  0  0  0  0  0  0  0  0  0  0
    0.9987   -4.7793    0.6481 O   0  0  0  0  0  0  0  0  0  0  0  0
    1.6873   -4.4524    2.7662 O   0  0  0  0  0  0  0  0  0  0  0  0
    0.4787   -4.1991    3.3770 C   0  0  0  0  0  0  0  0  0  0  0  0
   -0.3220   -3.0595    2.9581 C   0  0  0  0  0  0  0  0  0  0  0  0
   -1.2464   -3.0747    1.9349 C   0  0  0  0  0  0  0  0  0  0  0  0
   -2.0078   -1.9761    1.5861 C   0  0  0  0  0  0  0  0  0  0  0  0
   -1.8628   -0.7731    2.2827 C   0  0  0  0  0  0  0  0  0  0  0  0
   -0.9519   -0.7309    3.3023 C   0  0  0  0  0  0  0  0  0  0  0  0
   -0.1848   -1.8494    3.6473 C   0  0  0  0  0  0  0  0  0  0  0  0
   -2.6702    0.3004    1.8459 N   0  0  0  0  0  0  0  0  0  0  0  0
   -4.0332    0.3582    2.3063 C   0  0  0  0  0  0  0  0  0  0  0  0
   -4.3778   -0.5739    3.0736 O   0  0  0  0  0  0  0  0  0  0  0  0
   -4.9404    1.4567    1.8750 C   0  0  1  0  0  0  0  0  0  0  0  0
   -5.7633    2.0583    2.9464 C   0  0  0  0  0  0  0  0  0  0  0  0
   -6.6905    1.1274    3.6653 C   0  0  0  0  0  0  0  0  0  0  0  0
   -7.6889    0.4487    2.7558 C   0  0  0  0  0  0  0  0  0  0  0  0
   -8.5400   -0.4039    3.5505 N   0  0  0  0  0  0  0  0  0  0  0  0
   -8.0926   -1.4813    4.3386 C   0  0  0  0  0  0  0  0  0  0  0  0
   -6.8835   -1.7767    4.4007 O   0  0  0  0  0  0  0  0  0  0  0  0
   -8.9957   -2.2924    5.1090 N   0  0  0  0  0  0  0  0  0  0  0  0
   -4.2443    2.4754    1.1426 N   0  0  0  0  0  0  0  0  0  0  0  0
   -4.1692    2.6253   -0.2505 C   0  0  0  0  0  0  0  0  0  0  0  0
   -4.7398    1.8258   -1.0753 O   0  0  0  0  0  0  0  0  0  0  0  0
   -3.3758    3.7802   -0.8294 C   0  0  1  0  0  0  0  0  0  0  0  0
   -4.1206    4.4611   -1.9211 C   0  0  0  0  0  0  0  0  0  0  0  0
   -3.2978    5.6176   -2.4706 C   0  0  0  0  0  0  0  0  0  0  0  0
   -4.3101    3.4776   -3.0633 C   0  0  0  0  0  0  0  0  0  0  0  0
   -3.0063    4.6467    0.2569 N   0  0  0  0  0  0  0  0  0  0  0  0
   -1.7762    4.5547    0.9546 C   0  0  0  0  0  0  0  0  0  0  0  0
   -0.9743    3.6696    0.6008 O   0  0  0  0  0  0  0  0  0  0  0  0
   -1.4128    5.4661    2.0837 C   0  0  0  0  0  0  0  0  0  0  0  0
   -0.1528    4.9818    2.7705 C   0  0  0  0  0  0  0  0  0  0  0  0
    0.2161    5.8937    3.9002 C   0  0  0  0  0  0  0  0  0  0  0  0
    1.4736    5.3757    4.6174 C   0  0  0  0  0  0  0  0  0  0  0  0
    1.8647    6.2864    5.7583 C   0  0  0  0  0  0  0  0  0  0  0  0
    3.0297    5.7582    6.4333 N   0  0  0  0  0  0  0  0  0  0  0  0
    4.4102    5.9747    6.1949 C   0  0  0  0  0  0  0  0  0  0  0  0
    4.9071    6.7045    5.3060 O   0  0  0  0  0  0  0  0  0  0  0  0
    5.1132    5.1751    7.1947 C   0  0  0  0  0  0  0  0  0  0  0  0
    4.2686    4.5309    7.9708 C   0  0  0  0  0  0  0  0  0  0  0  0
    2.9202    4.8508    7.5486 C   0  0  0  0  0  0  0  0  0  0  0  0
    1.8260    4.4351    8.0378 O   0  0  0  0  0  0  0  0  0  0  0  0
    7.5790    3.0781   -3.2534 H   0  0  0  0  0  0  0  0  0  0  0  0
    7.7846    3.0228   -1.4179 H   0  0  0  0  0  0  0  0  0  0  0  0
    7.0545    4.4207   -2.2337 H   0  0  0  0  0  0  0  0  0  0  0  0
    5.1845    2.9755   -3.0687 H   0  0  0  0  0  0  0  0  0  0  0  0
    5.2334    3.4218   -1.3615 H   0  0  0  0  0  0  0  0  0  0  0  0
    6.3732    1.3036   -0.8263 H   0  0  0  0  0  0  0  0  0  0  0  0
    7.1838    0.9874   -3.2535 H   0  0  0  0  0  0  0  0  0  0  0  0
    5.6526    0.0083   -3.4580 H   0  0  0  0  0  0  0  0  0  0  0  0
    6.9062   -0.4347   -2.2864 H   0  0  0  0  0  0  0  0  0  0  0  0
    4.1998    1.6682   -0.3218 H   0  0  0  0  0  0  0  0  0  0  0  0
    3.0720    2.2196   -2.1417 H   0  0  0  0  0  0  0  0  0  0  0  0
    3.3337   -0.4953   -3.5523 H   0  0  0  0  0  0  0  0  0  0  0  0
    3.7009    1.1401   -4.0909 H   0  0  0  0  0  0  0  0  0  0  0  0
    2.6445    0.0363   -7.1504 H   0  0  0  0  0  0  0  0  0  0  0  0
    3.5825    1.1417   -6.0977 H   0  0  0  0  0  0  0  0  0  0  0  0
    2.3840    2.0198   -8.2857 H   0  0  0  0  0  0  0  0  0  0  0  0
    2.6059    3.0495   -6.8354 H   0  0  0  0  0  0  0  0  0  0  0  0
    0.0969    2.2199   -7.9454 H   0  0  0  0  0  0  0  0  0  0  0  0
    0.3887    3.0659   -6.3627 H   0  0  0  0  0  0  0  0  0  0  0  0
   -0.4781    1.1890   -5.5089 H   0  0  0  0  0  0  0  0  0  0  0  0
    0.7847   -0.3037   -7.9417 H   0  0  0  0  0  0  0  0  0  0  0  0
   -0.2559   -2.2172   -7.5605 H   0  0  0  0  0  0  0  0  0  0  0  0
    1.9002   -2.0207   -6.4243 H   0  0  0  0  0  0  0  0  0  0  0  0
    0.8347   -3.3378   -5.8778 H   0  0  0  0  0  0  0  0  0  0  0  0
    1.0829   -1.9561   -4.8263 H   0  0  0  0  0  0  0  0  0  0  0  0
   -1.2405   -0.6205   -4.1869 H   0  0  0  0  0  0  0  0  0  0  0  0
   -3.7831   -2.1946   -4.8456 H   0  0  0  0  0  0  0  0  0  0  0  0
   -3.9162    0.3455   -4.8266 H   0  0  0  0  0  0  0  0  0  0  0  0
   -3.3052    0.3032   -3.1688 H   0  0  0  0  0  0  0  0  0  0  0  0
   -4.9051   -0.4577   -3.4785 H   0  0  0  0  0  0  0  0  0  0  0  0
   -3.9999   -2.4916   -2.3772 H   0  0  0  0  0  0  0  0  0  0  0  0
   -0.4113   -2.5748   -3.0901 H   0  0  0  0  0  0  0  0  0  0  0  0
    0.8501   -4.5995   -3.4013 H   0  0  0  0  0  0  0  0  0  0  0  0
   -0.2951   -6.8376   -3.5119 H   0  0  0  0  0  0  0  0  0  0  0  0
   -2.7509   -6.8874   -3.3023 H   0  0  0  0  0  0  0  0  0  0  0  0
   -4.0187   -4.7811   -2.9853 H   0  0  0  0  0  0  0  0  0  0  0  0
   -1.6790   -1.8322   -1.4149 H   0  0  0  0  0  0  0  0  0  0  0  0
   -0.4573    0.7431   -9.6160 H   0  0  0  0  0  0  0  0  0  0  0  0
   -1.0057   -1.0033   -9.4411 H   0  0  0  0  0  0  0  0  0  0  0  0
   -2.1710    0.3196   -9.5280 H   0  0  0  0  0  0  0  0  0  0  0  0
    2.0485    2.5247   -0.1539 H   0  0  0  0  0  0  0  0  0  0  0  0
    0.5750    1.5542   -0.0573 H   0  0  0  0  0  0  0  0  0  0  0  0
    0.8360    2.5390   -1.5263 H   0  0  0  0  0  0  0  0  0  0  0  0
    4.8958   -1.6559   -2.0948 H   0  0  0  0  0  0  0  0  0  0  0  0
    3.5704   -2.0821   -1.0564 H   0  0  0  0  0  0  0  0  0  0  0  0
    5.2051   -2.3340   -0.4199 H   0  0  0  0  0  0  0  0  0  0  0  0
    5.5072   -1.1386    2.4862 H   0  0  0  0  0  0  0  0  0  0  0  0
    2.5703   -0.4299    2.8837 H   0  0  0  0  0  0  0  0  0  0  0  0
    5.2390    0.7339    3.4922 H   0  0  0  0  0  0  0  0  0  0  0  0
    4.1417    0.6447    4.8905 H   0  0  0  0  0  0  0  0  0  0  0  0
    3.6672    1.5825    3.4214 H   0  0  0  0  0  0  0  0  0  0  0  0
    2.8000   -2.3776    4.1978 H   0  0  0  0  0  0  0  0  0  0  0  0
    3.2755   -1.0312    5.2334 H   0  0  0  0  0  0  0  0  0  0  0  0
    4.5834   -1.9767    4.5324 H   0  0  0  0  0  0  0  0  0  0  0  0
    3.2984   -2.7115    1.1859 H   0  0  0  0  0  0  0  0  0  0  0  0
    5.3434   -5.3194    0.9943 H   0  0  0  0  0  0  0  0  0  0  0  0
    3.8501   -5.5895    3.6746 H   0  0  0  0  0  0  0  0  0  0  0  0
    4.5846   -7.5899    1.5623 H   0  0  0  0  0  0  0  0  0  0  0  0
    4.4843   -7.9881    3.2829 H   0  0  0  0  0  0  0  0  0  0  0  0
    2.9714   -7.3889    2.4335 H   0  0  0  0  0  0  0  0  0  0  0  0
    6.2901   -5.3645    4.0929 H   0  0  0  0  0  0  0  0  0  0  0  0
    6.6143   -6.1865    2.4574 H   0  0  0  0  0  0  0  0  0  0  0  0
    6.0327   -7.0887    3.8716 H   0  0  0  0  0  0  0  0  0  0  0  0
    4.4092   -5.4852   -0.8103 H   0  0  0  0  0  0  0  0  0  0  0  0
    2.8142   -6.2712   -0.7124 H   0  0  0  0  0  0  0  0  0  0  0  0
    2.9880   -4.4445   -1.0365 H   0  0  0  0  0  0  0  0  0  0  0  0
    0.6950   -4.1608    4.4950 H   0  0  0  0  0  0  0  0  0  0  0  0
   -0.2234   -5.0978    3.3221 H   0  0  0  0  0  0  0  0  0  0  0  0
   -1.4330   -3.9748    1.3555 H   0  0  0  0  0  0  0  0  0  0  0  0
   -2.7314   -2.0502    0.7576 H   0  0  0  0  0  0  0  0  0  0  0  0
   -0.8405    0.2068    3.8452 H   0  0  0  0  0  0  0  0  0  0  0  0
    0.5296   -1.7763    4.4677 H   0  0  0  0  0  0  0  0  0  0  0  0
   -2.2790    1.0421    1.1980 H   0  0  0  0  0  0  0  0  0  0  0  0
   -5.6321    0.9726    1.1021 H   0  0  0  0  0  0  0  0  0  0  0  0
   -6.3478    2.8970    2.5099 H   0  0  0  0  0  0  0  0  0  0  0  0
   -5.0766    2.4760    3.7236 H   0  0  0  0  0  0  0  0  0  0  0  0
   -6.1108    0.4140    4.2551 H   0  0  0  0  0  0  0  0  0  0  0  0
   -7.2444    1.7633    4.4162 H   0  0  0  0  0  0  0  0  0  0  0  0
   -8.2780    1.2210    2.2414 H   0  0  0  0  0  0  0  0  0  0  0  0
   -7.1776   -0.1460    1.9662 H   0  0  0  0  0  0  0  0  0  0  0  0
   -9.5785   -0.2168    3.5526 H   0  0  0  0  0  0  0  0  0  0  0  0
   -9.3004   -3.2321    4.8151 H   0  0  0  0  0  0  0  0  0  0  0  0
   -9.3257   -1.8578    5.9989 H   0  0  0  0  0  0  0  0  0  0  0  0
   -3.7340    3.1942    1.7266 H   0  0  0  0  0  0  0  0  0  0  0  0
   -2.4617    3.2834   -1.2845 H   0  0  0  0  0  0  0  0  0  0  0  0
   -5.1165    4.8224   -1.5661 H   0  0  0  0  0  0  0  0  0  0  0  0
   -2.7011    5.2560   -3.3330 H   0  0  0  0  0  0  0  0  0  0  0  0
   -2.6865    6.0675   -1.6606 H   0  0  0  0  0  0  0  0  0  0  0  0
   -4.0112    6.3630   -2.8636 H   0  0  0  0  0  0  0  0  0  0  0  0
   -4.0952    3.9802   -4.0385 H   0  0  0  0  0  0  0  0  0  0  0  0
   -3.5866    2.6493   -2.9251 H   0  0  0  0  0  0  0  0  0  0  0  0
   -5.3316    3.0703   -3.0349 H   0  0  0  0  0  0  0  0  0  0  0  0
   -3.7020    5.3805    0.5349 H   0  0  0  0  0  0  0  0  0  0  0  0
   -2.2088    5.5213    2.8524 H   0  0  0  0  0  0  0  0  0  0  0  0
   -1.2465    6.4909    1.6959 H   0  0  0  0  0  0  0  0  0  0  0  0
   -0.3615    3.9831    3.1961 H   0  0  0  0  0  0  0  0  0  0  0  0
    0.7212    4.9257    2.0897 H   0  0  0  0  0  0  0  0  0  0  0  0
    0.4930    6.9019    3.5412 H   0  0  0  0  0  0  0  0  0  0  0  0
   -0.5626    6.0068    4.6573 H   0  0  0  0  0  0  0  0  0  0  0  0
    2.3174    5.2727    3.9204 H   0  0  0  0  0  0  0  0  0  0  0  0
    1.2685    4.3706    5.0337 H   0  0  0  0  0  0  0  0  0  0  0  0
    1.0236    6.4457    6.4645 H   0  0  0  0  0  0  0  0  0  0  0  0
    2.1368    7.3087    5.4012 H   0  0  0  0  0  0  0  0  0  0  0  0
    6.2016    5.0896    7.3197 H   0  0  0  0  0  0  0  0  0  0  0  0
    4.4621    3.8541    8.8098 H   0  0  0  0  0  0  0  0  0  0  0  0
  1  2  1  0
  2  3  1  0
  3  4  1  0
  3  5  1  0
  5  6  1  0
  6  7  1  0
  7  8  1  0
  8  9  2  0
  8 10  1  0
 10 11  1  0
 11 12  1  0
 12 13  1  0
 13 14  1  0
 14 15  1  0
 15 16  1  0
 16 17  1  0
 16 18  1  0
 18 19  2  0
 18 20  1  0
 20 21  1  0
 21 22  1  0
 21 23  1  0
 23 24  1  0
 24 25  2  0
 25 26  1  0
 26 27  2  0
 27 28  1  0
 28 29  2  0
 23 30  1  0
 15 31  1  0
 31 32  1  0
  6 33  1  0
 33 34  1  0
  5 35  1  0
 35 36  1  0
 35 37  1  0
 37 38  2  0
 37 39  1  0
 39 40  1  0
 40 41  1  0
 40 42  1  0
 39 43  1  0
 43 44  1  0
 44 45  2  0
 44 46  1  0
 46 47  1  0
 47 48  1  0
 47 49  1  0
 46 50  1  0
 50 51  1  0
 50 52  1  0
 52 53  2  0
 52 54  1  0
 54 55  1  0
 55 56  1  0
 56 57  1  0
 57 58  2  0
 58 59  1  0
 59 60  2  0
 60 61  1  0
 59 62  1  0
 62 63  1  0
 63 64  2  0
 63 65  1  0
 65 66  1  0
 66 67  1  0
 67 68  1  0
 68 69  1  0
 69 70  1  0
 70 71  2  0
 70 72  1  0
 65 73  1  0
 73 74  1  0
 74 75  2  0
 74 76  1  0
 76 77  1  0
 77 78  1  0
 77 79  1  0
 76 80  1  0
 80 81  1  0
 81 82  2  0
 81 83  1  0
 83 84  1  0
 84 85  1  0
 85 86  1  0
 86 87  1  0
 87 88  1  0
 88 89  1  0
 89 90  2  0
 89 91  1  0
 91 92  2  0
 92 93  1  0
 93 94  2  0
 14 10  1  0
 29 24  1  0
 61 56  2  0
 93 88  1  0
  1 95  1  0
  1 96  1  0
  1 97  1  0
  2 98  1  0
  2 99  1  0
  3100  1  1
  4101  1  0
  4102  1  0
  4103  1  0
  5104  1  1
  6105  1  6
  7106  1  0
  7107  1  0
 11108  1  0
 11109  1  0
 12110  1  0
 12111  1  0
 13112  1  0
 13113  1  0
 14114  1  1
 15115  1  6
 16116  1  6
 17117  1  0
 17118  1  0
 17119  1  0
 20120  1  0
 21121  1  6
 22122  1  0
 22123  1  0
 22124  1  0
 23125  1  1
 25126  1  0
 26127  1  0
 27128  1  0
 28129  1  0
 29130  1  0
 30131  1  0
 32132  1  0
 32133  1  0
 32134  1  0
 34135  1  0
 34136  1  0
 34137  1  0
 36138  1  0
 36139  1  0
 36140  1  0
 39141  1  1
 40142  1  0
 41143  1  0
 41144  1  0
 41145  1  0
 42146  1  0
 42147  1  0
 42148  1  0
 43149  1  0
 46150  1  6
 47151  1  0
 48152  1  0
 48153  1  0
 48154  1  0
 49155  1  0
 49156  1  0
 49157  1  0
 51158  1  0
 51159  1  0
 51160  1  0
 55161  1  0
 55162  1  0
 57163  1  0
 58164  1  0
 60165  1  0
 61166  1  0
 62167  1  0
 65168  1  6
 66169  1  0
 66170  1  0
 67171  1  0
 67172  1  0
 68173  1  0
 68174  1  0
 69175  1  0
 72176  1  0
 72177  1  0
 73178  1  0
 76179  1  6
 77180  1  0
 78181  1  0
 78182  1  0
 78183  1  0
 79184  1  0
 79185  1  0
 79186  1  0
 80187  1  0
 83188  1  0
 83189  1  0
 84190  1  0
 84191  1  0
 85192  1  0
 85193  1  0
 86194  1  0
 86195  1  0
 87196  1  0
 87197  1  0
 91198  1  0
 92199  1  0
M  END
$$$$

     RDKit          3D

199202  0  0  0  0  0  0  0  0999 V2000
   -1.7225    3.9566    1.6698 C   0  0  0  0  0  0  0  0  0  0  0  0
   -2.7154    4.7765    2.4312 C   0  0  0  0  0  0  0  0  0  0  0  0
   -3.8855    5.1565    1.5912 C   0  0  2  0  0  0  0  0  0  0  0  0
   -4.7621    5.9998    2.4955 C   0  0  0  0  0  0  0  0  0  0  0  0
   -4.6780    3.9937    0.9639 C   0  0  1  0  0  0  0  0  0  0  0  0
   -5.3337    3.1266    1.8988 C   0  0  1  0  0  0  0  0  0  0  0  0
   -5.8171    1.7503    1.5059 C   0  0  0  0  0  0  0  0  0  0  0  0
   -4.8041    0.7504    1.1382 C   0  0  0  0  0  0  0  0  0  0  0  0
   -3.6435    0.9582    0.7487 O   0  0  0  0  0  0  0  0  0  0  0  0
   -5.2369   -0.6347    1.2787 N   0  0  0  0  0  0  0  0  0  0  0  0
   -6.6655   -0.9206    1.5666 C   0  0  0  0  0  0  0  0  0  0  0  0
   -6.8342   -2.3267    1.0256 C   0  0  0  0  0  0  0  0  0  0  0  0
   -5.5067   -2.9921    1.4050 C   0  0  0  0  0  0  0  0  0  0  0  0
   -4.4792   -1.8456    1.3168 C   0  0  1  0  0  0  0  0  0  0  0  0
   -3.6005   -2.1935    0.1561 C   0  0  1  0  0  0  0  0  0  0  0  0
   -2.5757   -3.1923    0.5090 C   0  0  1  0  0  0  0  0  0  0  0  0
   -3.0593   -4.5335    1.0214 C   0  0  0  0  0  0  0  0  0  0  0  0
   -1.5356   -3.4489   -0.5172 C   0  0  0  0  0  0  0  0  0  0  0  0
   -0.2986   -3.2794   -0.2114 O   0  0  0  0  0  0  0  0  0  0  0  0
   -1.7789   -3.8804   -1.8338 N   0  0  0  0  0  0  0  0  0  0  0  0
   -0.7070   -4.1414   -2.7369 C   0  0  2  0  0  0  0  0  0  0  0  0
   -0.2954   -2.9636   -3.5990 C   0  0  0  0  0  0  0  0  0  0  0  0
   -0.9352   -5.3536   -3.5702 C   0  0  1  0  0  0  0  0  0  0  0  0
    0.0953   -5.5134   -4.6369 C   0  0  0  0  0  0  0  0  0  0  0  0
    1.3346   -6.0985   -4.3807 C   0  0  0  0  0  0  0  0  0  0  0  0
    2.3014   -6.2476   -5.3466 C   0  0  0  0  0  0  0  0  0  0  0  0
    2.0181   -5.7888   -6.6368 C   0  0  0  0  0  0  0  0  0  0  0  0
    0.8021   -5.2109   -6.8994 C   0  0  0  0  0  0  0  0  0  0  0  0
   -0.1667   -5.0605   -5.9359 C   0  0  0  0  0  0  0  0  0  0  0  0
   -1.0632   -6.4713   -2.7549 O   0  0  0  0  0  0  0  0  0  0  0  0
   -4.2915   -2.4257   -1.0039 O   0  0  0  0  0  0  0  0  0  0  0  0
   -4.1141   -1.4712   -1.9720 C   0  0  0  0  0  0  0  0  0  0  0  0
   -4.3571    2.7213    2.9158 O   0  0  0  0  0  0  0  0  0  0  0  0
   -5.0146    2.8541    4.1552 C   0  0  0  0  0  0  0  0  0  0  0  0
   -5.4942    4.6364   -0.0469 N   0  0  0  0  0  0  0  0  0  0  0  0
   -6.7601    5.2137    0.5396 C   0  0  0  0  0  0  0  0  0  0  0  0
   -5.3848    4.7809   -1.4144 C   0  0  0  0  0  0  0  0  0  0  0  0
   -6.3830    5.5958   -1.8846 O   0  0  0  0  0  0  0  0  0  0  0  0
   -4.5691    4.3601   -2.4904 C   0  0  1  0  0  0  0  0  0  0  0  0
   -3.6546    5.4902   -3.0391 C   0  0  0  0  0  0  0  0  0  0  0  0
   -2.7357    6.0016   -1.9598 C   0  0  0  0  0  0  0  0  0  0  0  0
   -4.4094    6.6207   -3.6276 C   0  0  0  0  0  0  0  0  0  0  0  0
   -3.7042    3.2238   -2.4723 N   0  0  0  0  0  0  0  0  0  0  0  0
   -3.4312    2.6734   -3.7875 C   0  0  0  0  0  0  0  0  0  0  0  0
   -3.9576    3.2458   -4.8104 O   0  0  0  0  0  0  0  0  0  0  0  0
   -2.5959    1.5058   -4.0706 C   0  0  1  0  0  0  0  0  0  0  0  0
   -3.4397    0.5338   -4.9284 C   0  0  0  0  0  0  0  0  0  0  0  0
   -2.6860   -0.7034   -5.2897 C   0  0  0  0  0  0  0  0  0  0  0  0
   -4.1003    1.1944   -6.0856 C   0  0  0  0  0  0  0  0  0  0  0  0
   -1.3600    1.8311   -4.7264 N   0  0  0  0  0  0  0  0  0  0  0  0
   -1.2131    2.6593   -5.8900 C   0  0  0  0  0  0  0  0  0  0  0  0
   -0.1592    1.2866   -4.1511 C   0  0  0  0  0  0  0  0  0  0  0  0
   -0.2647    0.5310   -3.1546 O   0  0  0  0  0  0  0  0  0  0  0  0
    1.0911    1.5670   -4.6578 O   0  0  0  0  0  0  0  0  0  0  0  0
    2.3238    1.0714   -4.2108 C   0  0  0  0  0  0  0  0  0  0  0  0
    2.6417    1.2735   -2.8047 C   0  0  0  0  0  0  0  0  0  0  0  0
    2.4009    0.1829   -1.9502 C   0  0  0  0  0  0  0  0  0  0  0  0
    2.6524    0.2369   -0.6027 C   0  0  0  0  0  0  0  0  0  0  0  0
    3.1630    1.3861   -0.0080 C   0  0  0  0  0  0  0  0  0  0  0  0
    3.3961    2.4487   -0.8394 C   0  0  0  0  0  0  0  0  0  0  0  0
    3.1443    2.4049   -2.2161 C   0  0  0  0  0  0  0  0  0  0  0  0
    3.4268    1.3364    1.3719 N   0  0  0  0  0  0  0  0  0  0  0  0
    3.7023    2.4207    2.2259 C   0  0  0  0  0  0  0  0  0  0  0  0
    3.7204    3.6047    1.7978 O   0  0  0  0  0  0  0  0  0  0  0  0
    3.9930    2.2687    3.6904 C   0  0  1  0  0  0  0  0  0  0  0  0
    3.1950    3.2006    4.5103 C   0  0  0  0  0  0  0  0  0  0  0  0
    1.7351    3.1820    4.5382 C   0  0  0  0  0  0  0  0  0  0  0  0
    0.9976    2.0106    5.0712 C   0  0  0  0  0  0  0  0  0  0  0  0
    1.1432    0.7500    4.4253 N   0  0  0  0  0  0  0  0  0  0  0  0
    0.7932    0.5022    3.0738 C   0  0  0  0  0  0  0  0  0  0  0  0
    0.3257    1.4143    2.3505 O   0  0  0  0  0  0  0  0  0  0  0  0
    0.9772   -0.8008    2.5425 N   0  0  0  0  0  0  0  0  0  0  0  0
    4.1062    0.9152    4.1259 N   0  0  0  0  0  0  0  0  0  0  0  0
    5.1622    0.6149    5.0621 C   0  0  0  0  0  0  0  0  0  0  0  0
    5.9385    1.5262    5.4895 O   0  0  0  0  0  0  0  0  0  0  0  0
    5.4062   -0.7640    5.5766 C   0  0  1  0  0  0  0  0  0  0  0  0
    5.2257   -0.8899    7.0597 C   0  0  0  0  0  0  0  0  0  0  0  0
    3.8452   -0.5367    7.5264 C   0  0  0  0  0  0  0  0  0  0  0  0
    6.2933   -0.2020    7.8661 C   0  0  0  0  0  0  0  0  0  0  0  0
    4.5659   -1.7474    4.9189 N   0  0  0  0  0  0  0  0  0  0  0  0
    5.1900   -2.5518    3.8765 C   0  0  0  0  0  0  0  0  0  0  0  0
    6.3910   -2.2843    3.6723 O   0  0  0  0  0  0  0  0  0  0  0  0
    4.3585   -3.5361    3.2232 C   0  0  0  0  0  0  0  0  0  0  0  0
    5.0219   -4.1699    2.0345 C   0  0  0  0  0  0  0  0  0  0  0  0
    5.3580   -3.1304    1.0175 C   0  0  0  0  0  0  0  0  0  0  0  0
    5.9045   -3.7295   -0.2189 C   0  0  0  0  0  0  0  0  0  0  0  0
    7.1617   -4.4924   -0.0668 C   0  0  0  0  0  0  0  0  0  0  0  0
    8.2886   -3.7509    0.4195 N   0  0  0  0  0  0  0  0  0  0  0  0
    8.8727   -3.5694    1.6739 C   0  0  0  0  0  0  0  0  0  0  0  0
    8.5195   -4.1144    2.7320 O   0  0  0  0  0  0  0  0  0  0  0  0
    9.9847   -2.6291    1.5516 C   0  0  0  0  0  0  0  0  0  0  0  0
   10.1062   -2.2338    0.2976 C   0  0  0  0  0  0  0  0  0  0  0  0
    9.0653   -2.9056   -0.4716 C   0  0  0  0  0  0  0  0  0  0  0  0
    8.9044   -2.7477   -1.7052 O   0  0  0  0  0  0  0  0  0  0  0  0
   -2.0704    2.9539    1.5306 H   0  0  0  0  0  0  0  0  0  0  0  0
   -1.4921    4.5347    0.7411 H   0  0  0  0  0  0  0  0  0  0  0  0
   -0.7255    3.9250    2.1965 H   0  0  0  0  0  0  0  0  0  0  0  0
   -2.1508    5.7771    2.6074 H   0  0  0  0  0  0  0  0  0  0  0  0
   -2.8945    4.4442    3.4455 H   0  0  0  0  0  0  0  0  0  0  0  0
   -3.5186    5.8148    0.7810 H   0  0  0  0  0  0  0  0  0  0  0  0
   -4.2252    6.1930    3.4812 H   0  0  0  0  0  0  0  0  0  0  0  0
   -4.8796    7.0207    2.0820 H   0  0  0  0  0  0  0  0  0  0  0  0
   -5.7189    5.5962    2.7667 H   0  0  0  0  0  0  0  0  0  0  0  0
   -3.8116    3.4351    0.4708 H   0  0  0  0  0  0  0  0  0  0  0  0
   -6.1476    3.5095    2.5545 H   0  0  0  0  0  0  0  0  0  0  0  0
   -6.3361    1.3379    2.4234 H   0  0  0  0  0  0  0  0  0  0  0  0
   -6.6442    1.8014    0.7604 H   0  0  0  0  0  0  0  0  0  0  0  0
   -7.2760   -0.1667    1.0775 H   0  0  0  0  0  0  0  0  0  0  0  0
   -6.8527   -0.9712    2.6350 H   0  0  0  0  0  0  0  0  0  0  0  0
   -7.0235   -2.3364   -0.0491 H   0  0  0  0  0  0  0  0  0  0  0  0
   -7.6048   -2.8917    1.5684 H   0  0  0  0  0  0  0  0  0  0  0  0
   -5.5725   -3.4127    2.4192 H   0  0  0  0  0  0  0  0  0  0  0  0
   -5.3660   -3.7546    0.6237 H   0  0  0  0  0  0  0  0  0  0  0  0
   -3.8495   -1.8810    2.2700 H   0  0  0  0  0  0  0  0  0  0  0  0
   -2.9824   -1.2083    0.0083 H   0  0  0  0  0  0  0  0  0  0  0  0
   -2.0349   -2.7551    1.4252 H   0  0  0  0  0  0  0  0  0  0  0  0
   -2.1225   -5.1615    1.2657 H   0  0  0  0  0  0  0  0  0  0  0  0
   -3.5795   -4.5018    1.9844 H   0  0  0  0  0  0  0  0  0  0  0  0
   -3.5888   -5.1506    0.3100 H   0  0  0  0  0  0  0  0  0  0  0  0
   -2.7562   -4.0099   -2.1554 H   0  0  0  0  0  0  0  0  0  0  0  0
    0.2063   -4.3185   -2.0916 H   0  0  0  0  0  0  0  0  0  0  0  0
   -0.0522   -2.1285   -2.9444 H   0  0  0  0  0  0  0  0  0  0  0  0
    0.7037   -3.2837   -4.0370 H   0  0  0  0  0  0  0  0  0  0  0  0
   -0.9290   -2.7784   -4.4587 H   0  0  0  0  0  0  0  0  0  0  0  0
   -1.9044   -5.2804   -4.1355 H   0  0  0  0  0  0  0  0  0  0  0  0
    1.5674   -6.4616   -3.3865 H   0  0  0  0  0  0  0  0  0  0  0  0
    3.2701   -6.7024   -5.1626 H   0  0  0  0  0  0  0  0  0  0  0  0
    2.7834   -5.9013   -7.4166 H   0  0  0  0  0  0  0  0  0  0  0  0
    0.5586   -4.8389   -7.9087 H   0  0  0  0  0  0  0  0  0  0  0  0
   -1.1313   -4.5993   -6.1536 H   0  0  0  0  0  0  0  0  0  0  0  0
   -1.8887   -6.9913   -2.9541 H   0  0  0  0  0  0  0  0  0  0  0  0
   -4.4487   -0.4484   -1.6276 H   0  0  0  0  0  0  0  0  0  0  0  0
   -3.0531   -1.4389   -2.3098 H   0  0  0  0  0  0  0  0  0  0  0  0
   -4.7800   -1.7196   -2.8220 H   0  0  0  0  0  0  0  0  0  0  0  0
   -5.9154    2.2279    4.2076 H   0  0  0  0  0  0  0  0  0  0  0  0
   -5.2641    3.8942    4.3635 H   0  0  0  0  0  0  0  0  0  0  0  0
   -4.2755    2.4355    4.8920 H   0  0  0  0  0  0  0  0  0  0  0  0
   -6.5842    6.2614    0.6940 H   0  0  0  0  0  0  0  0  0  0  0  0
   -7.5575    5.1973   -0.2895 H   0  0  0  0  0  0  0  0  0  0  0  0
   -7.1928    4.5874    1.2954 H   0  0  0  0  0  0  0  0  0  0  0  0
   -5.2302    4.2139   -3.4245 H   0  0  0  0  0  0  0  0  0  0  0  0
   -2.9906    5.0626   -3.8185 H   0  0  0  0  0  0  0  0  0  0  0  0
   -3.1177    6.8983   -1.4553 H   0  0  0  0  0  0  0  0  0  0  0  0
   -1.7212    6.2906   -2.3358 H   0  0  0  0  0  0  0  0  0  0  0  0
   -2.5402    5.1323   -1.2977 H   0  0  0  0  0  0  0  0  0  0  0  0
   -5.1708    6.3499   -4.3806 H   0  0  0  0  0  0  0  0  0  0  0  0
   -4.7599    7.2891   -2.8254 H   0  0  0  0  0  0  0  0  0  0  0  0
   -3.6673    7.2434   -4.1998 H   0  0  0  0  0  0  0  0  0  0  0  0
   -3.2623    2.7578   -1.6935 H   0  0  0  0  0  0  0  0  0  0  0  0
   -2.4131    0.9082   -3.1470 H   0  0  0  0  0  0  0  0  0  0  0  0
   -4.2801    0.1916   -4.2504 H   0  0  0  0  0  0  0  0  0  0  0  0
   -2.8938   -1.0234   -6.3542 H   0  0  0  0  0  0  0  0  0  0  0  0
   -1.6060   -0.5313   -5.2628 H   0  0  0  0  0  0  0  0  0  0  0  0
   -3.0045   -1.6067   -4.7000 H   0  0  0  0  0  0  0  0  0  0  0  0
   -5.1247    1.5412   -5.7610 H   0  0  0  0  0  0  0  0  0  0  0  0
   -4.3540    0.3934   -6.8401 H   0  0  0  0  0  0  0  0  0  0  0  0
   -3.5426    1.9420   -6.6374 H   0  0  0  0  0  0  0  0  0  0  0  0
   -1.2074    2.0532   -6.7990 H   0  0  0  0  0  0  0  0  0  0  0  0
   -1.9336    3.5039   -5.9472 H   0  0  0  0  0  0  0  0  0  0  0  0
   -0.2067    3.1652   -5.8090 H   0  0  0  0  0  0  0  0  0  0  0  0
    3.1081    1.6324   -4.8002 H   0  0  0  0  0  0  0  0  0  0  0  0
    2.4639   -0.0041   -4.4635 H   0  0  0  0  0  0  0  0  0  0  0  0
    2.0070   -0.7443   -2.3458 H   0  0  0  0  0  0  0  0  0  0  0  0
    2.4359   -0.6619   -0.0002 H   0  0  0  0  0  0  0  0  0  0  0  0
    3.7937    3.3673   -0.4488 H   0  0  0  0  0  0  0  0  0  0  0  0
    3.3352    3.2512   -2.8625 H   0  0  0  0  0  0  0  0  0  0  0  0
    3.4280    0.3781    1.8417 H   0  0  0  0  0  0  0  0  0  0  0  0
    5.0668    2.6840    3.8009 H   0  0  0  0  0  0  0  0  0  0  0  0
    3.5182    4.2463    4.2235 H   0  0  0  0  0  0  0  0  0  0  0  0
    3.5689    3.1046    5.5739 H   0  0  0  0  0  0  0  0  0  0  0  0
    1.4175    4.1372    5.0781 H   0  0  0  0  0  0  0  0  0  0  0  0
    1.2745    3.3721    3.5122 H   0  0  0  0  0  0  0  0  0  0  0  0
    1.1189    1.9034    6.1896 H   0  0  0  0  0  0  0  0  0  0  0  0
   -0.1122    2.2651    4.9668 H   0  0  0  0  0  0  0  0  0  0  0  0
    1.5191   -0.0518    4.9869 H   0  0  0  0  0  0  0  0  0  0  0  0
    1.7064   -1.4204    2.9038 H   0  0  0  0  0  0  0  0  0  0  0  0
    0.3749   -1.1834    1.7688 H   0  0  0  0  0  0  0  0  0  0  0  0
    3.5277    0.1124    3.8413 H   0  0  0  0  0  0  0  0  0  0  0  0
    6.4859   -0.9491    5.3448 H   0  0  0  0  0  0  0  0  0  0  0  0
    5.3480   -1.9915    7.2820 H   0  0  0  0  0  0  0  0  0  0  0  0
    3.6023   -1.0555    8.4977 H   0  0  0  0  0  0  0  0  0  0  0  0
    3.7823    0.5557    7.7708 H   0  0  0  0  0  0  0  0  0  0  0  0
    3.0749   -0.8377    6.7897 H   0  0  0  0  0  0  0  0  0  0  0  0
    6.1097    0.8774    7.9735 H   0  0  0  0  0  0  0  0  0  0  0  0
    7.3023   -0.4284    7.4302 H   0  0  0  0  0  0  0  0  0  0  0  0
    6.3307   -0.6397    8.8990 H   0  0  0  0  0  0  0  0  0  0  0  0
    3.5735   -1.9039    5.1422 H   0  0  0  0  0  0  0  0  0  0  0  0
    3.4159   -3.0325    2.9028 H   0  0  0  0  0  0  0  0  0  0  0  0
    4.0517   -4.2953    3.9851 H   0  0  0  0  0  0  0  0  0  0  0  0
    4.3141   -4.9349    1.6040 H   0  0  0  0  0  0  0  0  0  0  0  0
    5.9225   -4.7348    2.3323 H   0  0  0  0  0  0  0  0  0  0  0  0
    4.4416   -2.4970    0.7788 H   0  0  0  0  0  0  0  0  0  0  0  0
    6.0668   -2.3706    1.4444 H   0  0  0  0  0  0  0  0  0  0  0  0
    6.0153   -2.9142   -1.0211 H   0  0  0  0  0  0  0  0  0  0  0  0
    5.1490   -4.4523   -0.6656 H   0  0  0  0  0  0  0  0  0  0  0  0
    7.4189   -4.9540   -1.0656 H   0  0  0  0  0  0  0  0  0  0  0  0
    6.9555   -5.3284    0.6575 H   0  0  0  0  0  0  0  0  0  0  0  0
   10.6370   -2.2856    2.3678 H   0  0  0  0  0  0  0  0  0  0  0  0
   10.8511   -1.5452   -0.0372 H   0  0  0  0  0  0  0  0  0  0  0  0
  1  2  1  0
  2  3  1  0
  3  4  1  0
  3  5  1  0
  5  6  1  0
  6  7  1  0
  7  8  1  0
  8  9  2  0
  8 10  1  0
 10 11  1  0
 11 12  1  0
 12 13  1  0
 13 14  1  0
 14 15  1  0
 15 16  1  0
 16 17  1  0
 16 18  1  0
 18 19  2  0
 18 20  1  0
 20 21  1  0
 21 22  1  0
 21 23  1  0
 23 24  1  0
 24 25  2  0
 25 26  1  0
 26 27  2  0
 27 28  1  0
 28 29  2  0
 23 30  1  0
 15 31  1  0
 31 32  1  0
  6 33  1  0
 33 34  1  0
  5 35  1  0
 35 36  1  0
 35 37  1  0
 37 38  2  0
 37 39  1  0
 39 40  1  0
 40 41  1  0
 40 42  1  0
 39 43  1  0
 43 44  1  0
 44 45  2  0
 44 46  1  0
 46 47  1  0
 47 48  1  0
 47 49  1  0
 46 50  1  0
 50 51  1  0
 50 52  1  0
 52 53  2  0
 52 54  1  0
 54 55  1  0
 55 56  1  0
 56 57  1  0
 57 58  2  0
 58 59  1  0
 59 60  2  0
 60 61  1  0
 59 62  1  0
 62 63  1  0
 63 64  2  0
 63 65  1  0
 65 66  1  0
 66 67  1  0
 67 68  1  0
 68 69  1  0
 69 70  1  0
 70 71  2  0
 70 72  1  0
 65 73  1  0
 73 74  1  0
 74 75  2  0
 74 76  1  0
 76 77  1  0
 77 78  1  0
 77 79  1  0
 76 80  1  0
 80 81  1  0
 81 82  2  0
 81 83  1  0
 83 84  1  0
 84 85  1  0
 85 86  1  0
 86 87  1  0
 87 88  1  0
 88 89  1  0
 89 90  2  0
 89 91  1  0
 91 92  2  0
 92 93  1  0
 93 94  2  0
 14 10  1  0
 29 24  1  0
 61 56  2  0
 93 88  1  0
  1 95  1  0
  1 96  1  0
  1 97  1  0
  2 98  1  0
  2 99  1  0
  3100  1  6
  4101  1  0
  4102  1  0
  4103  1  0
  5104  1  6
  6105  1  1
  7106  1  0
  7107  1  0
 11108  1  0
 11109  1  0
 12110  1  0
 12111  1  0
 13112  1  0
 13113  1  0
 14114  1  1
 15115  1  6
 16116  1  1
 17117  1  0
 17118  1  0
 17119  1  0
 20120  1  0
 21121  1  1
 22122  1  0
 22123  1  0
 22124  1  0
 23125  1  6
 25126  1  0
 26127  1  0
 27128  1  0
 28129  1  0
 29130  1  0
 30131  1  0
 32132  1  0
 32133  1  0
 32134  1  0
 34135  1  0
 34136  1  0
 34137  1  0
 36138  1  0
 36139  1  0
 36140  1  0
 39141  1  6
 40142  1  0
 41143  1  0
 41144  1  0
 41145  1  0
 42146  1  0
 42147  1  0
 42148  1  0
 43149  1  0
 46150  1  1
 47151  1  0
 48152  1  0
 48153  1  0
 48154  1  0
 49155  1  0
 49156  1  0
 49157  1  0
 51158  1  0
 51159  1  0
 51160  1  0
 55161  1  0
 55162  1  0
 57163  1  0
 58164  1  0
 60165  1  0
 61166  1  0
 62167  1  0
 65168  1  6
 66169  1  0
 66170  1  0
 67171  1  0
 67172  1  0
 68173  1  0
 68174  1  0
 69175  1  0
 72176  1  0
 72177  1  0
 73178  1  0
 76179  1  1
 77180  1  0
 78181  1  0
 78182  1  0
 78183  1  0
 79184  1  0
 79185  1  0
 79186  1  0
 80187  1  0
 83188  1  0
 83189  1  0
 84190  1  0
 84191  1  0
 85192  1  0
 85193  1  0
 86194  1  0
 86195  1  0
 87196  1  0
 87197  1  0
 91198  1  0
 92199  1  0
M  END
$$$$

     RDKit          3D

199202  0  0  0  0  0  0  0  0999 V2000
   -6.8359   -6.2898   -2.9388 C   0  0  0  0  0  0  0  0  0  0  0  0
   -5.8906   -5.0782   -2.8873 C   0  0  0  0  0  0  0  0  0  0  0  0
   -6.1121   -4.2760   -1.6485 C   0  0  2  0  0  0  0  0  0  0  0  0
   -7.5158   -3.7142   -1.5132 C   0  0  0  0  0  0  0  0  0  0  0  0
   -5.0704   -3.4472   -1.0879 C   0  0  1  0  0  0  0  0  0  0  0  0
   -3.7902   -4.2626   -0.7061 C   0  0  1  0  0  0  0  0  0  0  0  0
   -2.6734   -3.9541   -1.6226 C   0  0  0  0  0  0  0  0  0  0  0  0
   -1.4446   -4.7112   -1.2599 C   0  0  0  0  0  0  0  0  0  0  0  0
   -1.5650   -5.8727   -0.8222 O   0  0  0  0  0  0  0  0  0  0  0  0
   -0.1869   -4.0450   -1.4394 N   0  0  0  0  0  0  0  0  0  0  0  0
   -0.1657   -2.6537   -1.9093 C   0  0  0  0  0  0  0  0  0  0  0  0
    1.2431   -2.2275   -1.9583 C   0  0  0  0  0  0  0  0  0  0  0  0
    2.0645   -3.3745   -1.5045 C   0  0  0  0  0  0  0  0  0  0  0  0
    1.1607   -4.5401   -1.2550 C   0  0  1  0  0  0  0  0  0  0  0  0
    1.4136   -5.2090    0.0533 C   0  0  1  0  0  0  0  0  0  0  0  0
    2.5952   -6.0977    0.1489 C   0  0  1  0  0  0  0  0  0  0  0  0
    2.6061   -7.2209   -0.8815 C   0  0  0  0  0  0  0  0  0  0  0  0
    3.9100   -5.6541    0.4777 C   0  0  0  0  0  0  0  0  0  0  0  0
    4.4302   -6.0900    1.5938 O   0  0  0  0  0  0  0  0  0  0  0  0
    4.7946   -4.7927   -0.2095 N   0  0  0  0  0  0  0  0  0  0  0  0
    6.0759   -4.5211    0.4054 C   0  0  2  0  0  0  0  0  0  0  0  0
    5.7458   -3.4010    1.4486 C   0  0  0  0  0  0  0  0  0  0  0  0
    7.1371   -4.0533   -0.5157 C   0  0  1  0  0  0  0  0  0  0  0  0
    6.8256   -2.7092   -1.1090 C   0  0  0  0  0  0  0  0  0  0  0  0
    6.3048   -2.5608   -2.3741 C   0  0  0  0  0  0  0  0  0  0  0  0
    6.0323   -1.2960   -2.8834 C   0  0  0  0  0  0  0  0  0  0  0  0
    6.2779   -0.1453   -2.1284 C   0  0  0  0  0  0  0  0  0  0  0  0
    6.8000   -0.2909   -0.8587 C   0  0  0  0  0  0  0  0  0  0  0  0
    7.0634   -1.5521   -0.3729 C   0  0  0  0  0  0  0  0  0  0  0  0
    8.3719   -3.8452    0.1488 O   0  0  0  0  0  0  0  0  0  0  0  0
    1.3000   -4.3783    1.1635 O   0  0  0  0  0  0  0  0  0  0  0  0
    0.2758   -4.7414    2.0144 C   0  0  0  0  0  0  0  0  0  0  0  0
   -3.3922   -3.7363    0.5413 O   0  0  0  0  0  0  0  0  0  0  0  0
   -3.5238   -4.6295    1.5751 C   0  0  0  0  0  0  0  0  0  0  0  0
   -4.7374   -2.1075   -1.3191 N   0  0  0  0  0  0  0  0  0  0  0  0
   -4.8737   -1.1729   -0.1395 C   0  0  0  0  0  0  0  0  0  0  0  0
   -4.2693   -1.4278   -2.4765 C   0  0  0  0  0  0  0  0  0  0  0  0
   -3.8321   -0.2160   -2.3396 O   0  0  0  0  0  0  0  0  0  0  0  0
   -4.2114   -1.9291   -3.8579 C   0  0  1  0  0  0  0  0  0  0  0  0
   -5.3796   -1.2701   -4.6609 C   0  0  0  0  0  0  0  0  0  0  0  0
   -6.6771   -1.5944   -3.9720 C   0  0  0  0  0  0  0  0  0  0  0  0
   -5.4054   -2.0167   -5.9860 C   0  0  0  0  0  0  0  0  0  0  0  0
   -2.9861   -1.5604   -4.5639 N   0  0  0  0  0  0  0  0  0  0  0  0
   -2.5840   -0.2782   -4.9593 C   0  0  0  0  0  0  0  0  0  0  0  0
   -3.3028    0.7371   -4.7000 O   0  0  0  0  0  0  0  0  0  0  0  0
   -1.3317    0.0342   -5.6950 C   0  0  1  0  0  0  0  0  0  0  0  0
   -1.5326   -0.3430   -7.1450 C   0  0  0  0  0  0  0  0  0  0  0  0
   -1.8173   -1.8065   -7.3434 C   0  0  0  0  0  0  0  0  0  0  0  0
   -0.3568    0.0298   -8.0079 C   0  0  0  0  0  0  0  0  0  0  0  0
   -1.0892    1.4643   -5.5732 N   0  0  0  0  0  0  0  0  0  0  0  0
   -2.1159    2.4227   -5.9278 C   0  0  0  0  0  0  0  0  0  0  0  0
    0.1937    1.9414   -5.0920 C   0  0  0  0  0  0  0  0  0  0  0  0
    0.2872    3.1894   -4.9748 O   0  0  0  0  0  0  0  0  0  0  0  0
    1.2199    1.0813   -4.7967 O   0  0  0  0  0  0  0  0  0  0  0  0
    2.4788    1.4578   -4.3371 C   0  0  0  0  0  0  0  0  0  0  0  0
    2.5693    2.1267   -3.0426 C   0  0  0  0  0  0  0  0  0  0  0  0
    2.4645    3.4654   -2.7869 C   0  0  0  0  0  0  0  0  0  0  0  0
    2.5946    3.9889   -1.4946 C   0  0  0  0  0  0  0  0  0  0  0  0
    2.8379    3.1848   -0.4025 C   0  0  0  0  0  0  0  0  0  0  0  0
    2.9452    1.8293   -0.6585 C   0  0  0  0  0  0  0  0  0  0  0  0
    2.8159    1.3064   -1.9290 C   0  0  0  0  0  0  0  0  0  0  0  0
    2.9752    3.6700    0.9254 N   0  0  0  0  0  0  0  0  0  0  0  0
    2.5982    4.9610    1.3552 C   0  0  0  0  0  0  0  0  0  0  0  0
    2.0490    5.8123    0.5770 O   0  0  0  0  0  0  0  0  0  0  0  0
    2.8020    5.4863    2.7505 C   0  0  1  0  0  0  0  0  0  0  0  0
    1.5786    6.1011    3.2765 C   0  0  0  0  0  0  0  0  0  0  0  0
    0.3664    5.2704    3.4333 C   0  0  0  0  0  0  0  0  0  0  0  0
   -0.2279    4.6277    2.2365 C   0  0  0  0  0  0  0  0  0  0  0  0
   -1.4297    3.8690    2.5958 N   0  0  0  0  0  0  0  0  0  0  0  0
   -2.1132    3.1806    1.5447 C   0  0  0  0  0  0  0  0  0  0  0  0
   -1.7317    3.2012    0.3501 O   0  0  0  0  0  0  0  0  0  0  0  0
   -3.2866    2.4259    1.8460 N   0  0  0  0  0  0  0  0  0  0  0  0
    3.4725    4.5859    3.6309 N   0  0  0  0  0  0  0  0  0  0  0  0
    4.7480    4.0519    3.2879 C   0  0  0  0  0  0  0  0  0  0  0  0
    5.2311    4.3780    2.1901 O   0  0  0  0  0  0  0  0  0  0  0  0
    5.4771    3.1119    4.2350 C   0  0  1  0  0  0  0  0  0  0  0  0
    6.9462    3.2544    4.1638 C   0  0  0  0  0  0  0  0  0  0  0  0
    7.6204    2.2900    5.1339 C   0  0  0  0  0  0  0  0  0  0  0  0
    7.5212    2.9553    2.7880 C   0  0  0  0  0  0  0  0  0  0  0  0
    5.0087    3.2909    5.5723 N   0  0  0  0  0  0  0  0  0  0  0  0
    3.9169    2.6656    6.2193 C   0  0  0  0  0  0  0  0  0  0  0  0
    3.1653    1.8274    5.6431 O   0  0  0  0  0  0  0  0  0  0  0  0
    3.7003    3.0584    7.6346 C   0  0  0  0  0  0  0  0  0  0  0  0
    2.3722    2.7322    8.2193 C   0  0  0  0  0  0  0  0  0  0  0  0
    1.2465    3.4320    7.4701 C   0  0  0  0  0  0  0  0  0  0  0  0
   -0.0976    3.1980    8.0755 C   0  0  0  0  0  0  0  0  0  0  0  0
   -1.1133    3.9653    7.2366 C   0  0  0  0  0  0  0  0  0  0  0  0
   -2.4446    3.8666    7.7691 N   0  0  0  0  0  0  0  0  0  0  0  0
   -3.4979    2.9527    7.5636 C   0  0  0  0  0  0  0  0  0  0  0  0
   -3.4481    1.9621    6.7995 O   0  0  0  0  0  0  0  0  0  0  0  0
   -4.6228    3.3888    8.4030 C   0  0  0  0  0  0  0  0  0  0  0  0
   -4.3003    4.4725    9.0689 C   0  0  0  0  0  0  0  0  0  0  0  0
   -2.9390    4.8399    8.7239 C   0  0  0  0  0  0  0  0  0  0  0  0
   -2.3030    5.8337    9.1797 O   0  0  0  0  0  0  0  0  0  0  0  0
   -7.5294   -6.2987   -2.0754 H   0  0  0  0  0  0  0  0  0  0  0  0
   -6.2936   -7.2519   -2.8883 H   0  0  0  0  0  0  0  0  0  0  0  0
   -7.4490   -6.3036   -3.8535 H   0  0  0  0  0  0  0  0  0  0  0  0
   -5.9977   -4.5948   -3.8428 H   0  0  0  0  0  0  0  0  0  0  0  0
   -4.8737   -5.5312   -2.8585 H   0  0  0  0  0  0  0  0  0  0  0  0
   -6.1845   -5.1665   -0.8523 H   0  0  0  0  0  0  0  0  0  0  0  0
   -8.1405   -4.2909   -0.8047 H   0  0  0  0  0  0  0  0  0  0  0  0
   -7.3836   -2.7155   -1.0363 H   0  0  0  0  0  0  0  0  0  0  0  0
   -8.0641   -3.6974   -2.4620 H   0  0  0  0  0  0  0  0  0  0  0  0
   -5.4701   -3.3676    0.0622 H   0  0  0  0  0  0  0  0  0  0  0  0
   -4.0775   -5.2791   -0.6261 H   0  0  0  0  0  0  0  0  0  0  0  0
   -2.8782   -4.2970   -2.6846 H   0  0  0  0  0  0  0  0  0  0  0  0
   -2.4700   -2.8700   -1.7431 H   0  0  0  0  0  0  0  0  0  0  0  0
   -0.7686   -2.0097   -1.2314 H   0  0  0  0  0  0  0  0  0  0  0  0
   -0.5836   -2.6940   -2.9373 H   0  0  0  0  0  0  0  0  0  0  0  0
    1.5379   -1.8334   -2.9739 H   0  0  0  0  0  0  0  0  0  0  0  0
    1.3510   -1.3248   -1.2959 H   0  0  0  0  0  0  0  0  0  0  0  0
    2.7656   -3.6131   -2.3413 H   0  0  0  0  0  0  0  0  0  0  0  0
    2.6127   -3.1558   -0.5556 H   0  0  0  0  0  0  0  0  0  0  0  0
    1.3111   -5.2563   -2.1120 H   0  0  0  0  0  0  0  0  0  0  0  0
    0.5188   -5.9214    0.1816 H   0  0  0  0  0  0  0  0  0  0  0  0
    2.3074   -6.7680    1.1113 H   0  0  0  0  0  0  0  0  0  0  0  0
    1.5736   -7.6088   -0.9452 H   0  0  0  0  0  0  0  0  0  0  0  0
    3.0228   -6.9161   -1.8548 H   0  0  0  0  0  0  0  0  0  0  0  0
    3.2510   -8.0283   -0.4931 H   0  0  0  0  0  0  0  0  0  0  0  0
    4.5580   -4.3988   -1.1155 H   0  0  0  0  0  0  0  0  0  0  0  0
    6.4488   -5.3242    1.0646 H   0  0  0  0  0  0  0  0  0  0  0  0
    4.9417   -3.8741    2.0861 H   0  0  0  0  0  0  0  0  0  0  0  0
    5.2851   -2.5438    0.9765 H   0  0  0  0  0  0  0  0  0  0  0  0
    6.5796   -3.2418    2.1259 H   0  0  0  0  0  0  0  0  0  0  0  0
    7.3149   -4.7862   -1.3013 H   0  0  0  0  0  0  0  0  0  0  0  0
    6.1197   -3.4360   -2.9465 H   0  0  0  0  0  0  0  0  0  0  0  0
    5.6232   -1.1609   -3.8738 H   0  0  0  0  0  0  0  0  0  0  0  0
    6.0551    0.8140   -2.5470 H   0  0  0  0  0  0  0  0  0  0  0  0
    7.0192    0.5714   -0.2132 H   0  0  0  0  0  0  0  0  0  0  0  0
    7.4742   -1.6185    0.6208 H   0  0  0  0  0  0  0  0  0  0  0  0
    8.9033   -4.6712    0.0492 H   0  0  0  0  0  0  0  0  0  0  0  0
    0.2395   -4.0453    2.8873 H   0  0  0  0  0  0  0  0  0  0  0  0
    0.5291   -5.7843    2.3622 H   0  0  0  0  0  0  0  0  0  0  0  0
   -0.6748   -4.8100    1.4902 H   0  0  0  0  0  0  0  0  0  0  0  0
   -2.9519   -5.5567    1.5028 H   0  0  0  0  0  0  0  0  0  0  0  0
   -4.6143   -4.8575    1.7854 H   0  0  0  0  0  0  0  0  0  0  0  0
   -3.1933   -4.0739    2.5021 H   0  0  0  0  0  0  0  0  0  0  0  0
   -5.0676   -0.1509   -0.4737 H   0  0  0  0  0  0  0  0  0  0  0  0
   -5.7939   -1.5263    0.3662 H   0  0  0  0  0  0  0  0  0  0  0  0
   -4.0361   -1.3317    0.5373 H   0  0  0  0  0  0  0  0  0  0  0  0
   -4.3615   -2.9755   -3.9305 H   0  0  0  0  0  0  0  0  0  0  0  0
   -5.2904   -0.2022   -4.7317 H   0  0  0  0  0  0  0  0  0  0  0  0
   -7.0295   -2.5718   -4.2795 H   0  0  0  0  0  0  0  0  0  0  0  0
   -6.6288   -1.4010   -2.8807 H   0  0  0  0  0  0  0  0  0  0  0  0
   -7.3962   -0.7838   -4.3353 H   0  0  0  0  0  0  0  0  0  0  0  0
   -5.1157   -1.3527   -6.8443 H   0  0  0  0  0  0  0  0  0  0  0  0
   -6.4380   -2.3934   -6.2392 H   0  0  0  0  0  0  0  0  0  0  0  0
   -4.7732   -2.9455   -5.9651 H   0  0  0  0  0  0  0  0  0  0  0  0
   -2.3120   -2.3544   -4.8007 H   0  0  0  0  0  0  0  0  0  0  0  0
   -0.5036   -0.5923   -5.3357 H   0  0  0  0  0  0  0  0  0  0  0  0
   -2.3993    0.2083   -7.5486 H   0  0  0  0  0  0  0  0  0  0  0  0
   -1.7043   -2.0854   -8.4366 H   0  0  0  0  0  0  0  0  0  0  0  0
   -1.0903   -2.4757   -6.8391 H   0  0  0  0  0  0  0  0  0  0  0  0
   -2.8183   -2.1366   -7.0885 H   0  0  0  0  0  0  0  0  0  0  0  0
   -0.2454    1.1237   -8.1211 H   0  0  0  0  0  0  0  0  0  0  0  0
   -0.5883   -0.3299   -9.0402 H   0  0  0  0  0  0  0  0  0  0  0  0
    0.5809   -0.4763   -7.7338 H   0  0  0  0  0  0  0  0  0  0  0  0
   -2.8476    2.0183   -6.6399 H   0  0  0  0  0  0  0  0  0  0  0  0
   -2.6079    2.8804   -5.0168 H   0  0  0  0  0  0  0  0  0  0  0  0
   -1.6596    3.3307   -6.4232 H   0  0  0  0  0  0  0  0  0  0  0  0
    2.9137    2.1898   -5.0951 H   0  0  0  0  0  0  0  0  0  0  0  0
    3.1913    0.5897   -4.4077 H   0  0  0  0  0  0  0  0  0  0  0  0
    2.2991    4.1481   -3.5976 H   0  0  0  0  0  0  0  0  0  0  0  0
    2.5014    5.0598   -1.4348 H   0  0  0  0  0  0  0  0  0  0  0  0
    3.1357    1.0945    0.1358 H   0  0  0  0  0  0  0  0  0  0  0  0
    2.9128    0.2501   -2.0687 H   0  0  0  0  0  0  0  0  0  0  0  0
    3.3853    3.0150    1.6194 H   0  0  0  0  0  0  0  0  0  0  0  0
    3.5815    6.2966    2.5333 H   0  0  0  0  0  0  0  0  0  0  0  0
    1.7785    6.6249    4.2678 H   0  0  0  0  0  0  0  0  0  0  0  0
    1.2710    6.9872    2.6266 H   0  0  0  0  0  0  0  0  0  0  0  0
    0.5511    4.5513    4.2722 H   0  0  0  0  0  0  0  0  0  0  0  0
   -0.4451    5.9453    3.8602 H   0  0  0  0  0  0  0  0  0  0  0  0
    0.4348    3.9237    1.7422 H   0  0  0  0  0  0  0  0  0  0  0  0
   -0.5360    5.3750    1.5072 H   0  0  0  0  0  0  0  0  0  0  0  0
   -1.7992    3.8076    3.5572 H   0  0  0  0  0  0  0  0  0  0  0  0
   -4.2266    2.8690    1.9665 H   0  0  0  0  0  0  0  0  0  0  0  0
   -3.2766    1.3813    1.9658 H   0  0  0  0  0  0  0  0  0  0  0  0
    3.0024    4.3228    4.5571 H   0  0  0  0  0  0  0  0  0  0  0  0
    5.1871    2.0721    3.8740 H   0  0  0  0  0  0  0  0  0  0  0  0
    7.2663    4.2713    4.5104 H   0  0  0  0  0  0  0  0  0  0  0  0
    6.9102    1.4501    5.2768 H   0  0  0  0  0  0  0  0  0  0  0  0
    8.5273    1.8584    4.6955 H   0  0  0  0  0  0  0  0  0  0  0  0
    7.7949    2.7644    6.1227 H   0  0  0  0  0  0  0  0  0  0  0  0
    6.7137    2.5735    2.1525 H   0  0  0  0  0  0  0  0  0  0  0  0
    8.4067    2.2888    2.8444 H   0  0  0  0  0  0  0  0  0  0  0  0
    7.9054    3.9282    2.3956 H   0  0  0  0  0  0  0  0  0  0  0  0
    5.5553    3.9923    6.1563 H   0  0  0  0  0  0  0  0  0  0  0  0
    3.8726    4.1501    7.7892 H   0  0  0  0  0  0  0  0  0  0  0  0
    4.5380    2.5670    8.2042 H   0  0  0  0  0  0  0  0  0  0  0  0
    2.1676    1.6426    8.3278 H   0  0  0  0  0  0  0  0  0  0  0  0
    2.3457    3.1264    9.2584 H   0  0  0  0  0  0  0  0  0  0  0  0
    1.4410    4.5307    7.5205 H   0  0  0  0  0  0  0  0  0  0  0  0
    1.2465    3.0601    6.4274 H   0  0  0  0  0  0  0  0  0  0  0  0
   -0.3606    2.1209    8.1421 H   0  0  0  0  0  0  0  0  0  0  0  0
   -0.1771    3.6142    9.1100 H   0  0  0  0  0  0  0  0  0  0  0  0
   -1.1490    3.5212    6.2020 H   0  0  0  0  0  0  0  0  0  0  0  0
   -0.8260    5.0135    7.1390 H   0  0  0  0  0  0  0  0  0  0  0  0
   -5.6095    2.9256    8.5029 H   0  0  0  0  0  0  0  0  0  0  0  0
   -4.8918    5.0661    9.7802 H   0  0  0  0  0  0  0  0  0  0  0  0
  1  2  1  0
  2  3  1  0
  3  4  1  0
  3  5  1  0
  5  6  1  0
  6  7  1  0
  7  8  1  0
  8  9  2  0
  8 10  1  0
 10 11  1  0
 11 12  1  0
 12 13  1  0
 13 14  1  0
 14 15  1  0
 15 16  1  0
 16 17  1  0
 16 18  1  0
 18 19  2  0
 18 20  1  0
 20 21  1  0
 21 22  1  0
 21 23  1  0
 23 24  1  0
 24 25  2  0
 25 26  1  0
 26 27  2  0
 27 28  1  0
 28 29  2  0
 23 30  1  0
 15 31  1  0
 31 32  1  0
  6 33  1  0
 33 34  1  0
  5 35  1  0
 35 36  1  0
 35 37  1  0
 37 38  2  0
 37 39  1  0
 39 40  1  0
 40 41  1  0
 40 42  1  0
 39 43  1  0
 43 44  1  0
 44 45  2  0
 44 46  1  0
 46 47  1  0
 47 48  1  0
 47 49  1  0
 46 50  1  0
 50 51  1  0
 50 52  1  0
 52 53  2  0
 52 54  1  0
 54 55  1  0
 55 56  1  0
 56 57  1  0
 57 58  2  0
 58 59  1  0
 59 60  2  0
 60 61  1  0
 59 62  1  0
 62 63  1  0
 63 64  2  0
 63 65  1  0
 65 66  1  0
 66 67  1  0
 67 68  1  0
 68 69  1  0
 69 70  1  0
 70 71  2  0
 70 72  1  0
 65 73  1  0
 73 74  1  0
 74 75  2  0
 74 76  1  0
 76 77  1  0
 77 78  1  0
 77 79  1  0
 76 80  1  0
 80 81  1  0
 81 82  2  0
 81 83  1  0
 83 84  1  0
 84 85  1  0
 85 86  1  0
 86 87  1  0
 87 88  1  0
 88 89  1  0
 89 90  2  0
 89 91  1  0
 91 92  2  0
 92 93  1  0
 93 94  2  0
 14 10  1  0
 29 24  1  0
 61 56  2  0
 93 88  1  0
  1 95  1  0
  1 96  1  0
  1 97  1  0
  2 98  1  0
  2 99  1  0
  3100  1  1
  4101  1  0
  4102  1  0
  4103  1  0
  5104  1  1
  6105  1  1
  7106  1  0
  7107  1  0
 11108  1  0
 11109  1  0
 12110  1  0
 12111  1  0
 13112  1  0
 13113  1  0
 14114  1  6
 15115  1  1
 16116  1  1
 17117  1  0
 17118  1  0
 17119  1  0
 20120  1  0
 21121  1  1
 22122  1  0
 22123  1  0
 22124  1  0
 23125  1  6
 25126  1  0
 26127  1  0
 27128  1  0
 28129  1  0
 29130  1  0
 30131  1  0
 32132  1  0
 32133  1  0
 32134  1  0
 34135  1  0
 34136  1  0
 34137  1  0
 36138  1  0
 36139  1  0
 36140  1  0
 39141  1  1
 40142  1  0
 41143  1  0
 41144  1  0
 41145  1  0
 42146  1  0
 42147  1  0
 42148  1  0
 43149  1  0
 46150  1  1
 47151  1  0
 48152  1  0
 48153  1  0
 48154  1  0
 49155  1  0
 49156  1  0
 49157  1  0
 51158  1  0
 51159  1  0
 51160  1  0
 55161  1  0
 55162  1  0
 57163  1  0
 58164  1  0
 60165  1  0
 61166  1  0
 62167  1  0
 65168  1  6
 66169  1  0
 66170  1  0
 67171  1  0
 67172  1  0
 68173  1  0
 68174  1  0
 69175  1  0
 72176  1  0
 72177  1  0
 73178  1  0
 76179  1  6
 77180  1  0
 78181  1  0
 78182  1  0
 78183  1  0
 79184  1  0
 79185  1  0
 79186  1  0
 80187  1  0
 83188  1  0
 83189  1  0
 84190  1  0
 84191  1  0
 85192  1  0
 85193  1  0
 86194  1  0
 86195  1  0
 87196  1  0
 87197  1  0
 91198  1  0
 92199  1  0
M  END
$$$$

     RDKit          3D

199202  0  0  0  0  0  0  0  0999 V2000
   -0.3338    3.9031    2.1100 C   0  0  0  0  0  0  0  0  0  0  0  0
   -0.9106    2.8407    3.0573 C   0  0  0  0  0  0  0  0  0  0  0  0
   -0.5649    1.4736    2.5341 C   0  0  2  0  0  0  0  0  0  0  0  0
   -1.2053    1.3459    1.1557 C   0  0  0  0  0  0  0  0  0  0  0  0
   -0.7455    0.3134    3.3854 C   0  0  1  0  0  0  0  0  0  0  0  0
   -0.4050   -0.9128    2.4172 C   0  0  1  0  0  0  0  0  0  0  0  0
    0.9708   -1.1974    2.1389 C   0  0  0  0  0  0  0  0  0  0  0  0
    0.9830   -2.3716    1.1664 C   0  0  0  0  0  0  0  0  0  0  0  0
   -0.0040   -2.5440    0.4117 O   0  0  0  0  0  0  0  0  0  0  0  0
    2.0469   -3.2823    1.0766 N   0  0  0  0  0  0  0  0  0  0  0  0
    3.3153   -3.2393    1.8815 C   0  0  0  0  0  0  0  0  0  0  0  0
    3.4349   -4.6692    2.3822 C   0  0  0  0  0  0  0  0  0  0  0  0
    2.5028   -5.4686    1.4734 C   0  0  0  0  0  0  0  0  0  0  0  0
    2.2726   -4.4832    0.3378 C   0  0  1  0  0  0  0  0  0  0  0  0
    1.3344   -4.9607   -0.6744 C   0  0  1  0  0  0  0  0  0  0  0  0
    1.5556   -4.1504   -1.9889 C   0  0  1  0  0  0  0  0  0  0  0  0
    3.0310   -4.4327   -2.3430 C   0  0  0  0  0  0  0  0  0  0  0  0
    0.7579   -4.7197   -3.0927 C   0  0  0  0  0  0  0  0  0  0  0  0
    1.3470   -5.3247   -4.0617 O   0  0  0  0  0  0  0  0  0  0  0  0
   -0.6523   -4.6609   -3.1976 N   0  0  0  0  0  0  0  0  0  0  0  0
   -1.2262   -5.3054   -4.3849 C   0  0  2  0  0  0  0  0  0  0  0  0
   -1.2007   -4.1817   -5.4555 C   0  0  0  0  0  0  0  0  0  0  0  0
   -2.5954   -5.8393   -4.2032 C   0  0  1  0  0  0  0  0  0  0  0  0
   -3.5938   -4.7585   -3.9189 C   0  0  0  0  0  0  0  0  0  0  0  0
   -4.0712   -3.9235   -4.9041 C   0  0  0  0  0  0  0  0  0  0  0  0
   -4.9707   -2.9046   -4.6829 C   0  0  0  0  0  0  0  0  0  0  0  0
   -5.4175   -2.7077   -3.4102 C   0  0  0  0  0  0  0  0  0  0  0  0
   -4.9677   -3.5223   -2.3765 C   0  0  0  0  0  0  0  0  0  0  0  0
   -4.0712   -4.5295   -2.6339 C   0  0  0  0  0  0  0  0  0  0  0  0
   -2.9666   -6.4686   -5.4072 O   0  0  0  0  0  0  0  0  0  0  0  0
    1.8551   -6.2393   -1.0915 O   0  0  0  0  0  0  0  0  0  0  0  0
    0.8919   -7.2083   -1.1217 C   0  0  0  0  0  0  0  0  0  0  0  0
   -0.9331   -1.9671    3.1953 O   0  0  0  0  0  0  0  0  0  0  0  0
   -2.1517   -2.4308    2.8371 C   0  0  0  0  0  0  0  0  0  0  0  0
   -0.0979    0.0757    4.6108 N   0  0  0  0  0  0  0  0  0  0  0  0
   -0.9789   -0.6402    5.6300 C   0  0  0  0  0  0  0  0  0  0  0  0
    1.1769    0.3573    5.1317 C   0  0  0  0  0  0  0  0  0  0  0  0
    1.5710   -0.3632    6.1484 O   0  0  0  0  0  0  0  0  0  0  0  0
    2.1506    1.3586    4.7204 C   0  0  1  0  0  0  0  0  0  0  0  0
    2.2832    2.3459    5.9505 C   0  0  0  0  0  0  0  0  0  0  0  0
    0.8742    2.7869    6.2559 C   0  0  0  0  0  0  0  0  0  0  0  0
    2.9575    3.6210    5.4311 C   0  0  0  0  0  0  0  0  0  0  0  0
    3.4489    0.6869    4.6430 N   0  0  0  0  0  0  0  0  0  0  0  0
    4.6371    0.9944    5.2598 C   0  0  0  0  0  0  0  0  0  0  0  0
    4.8563    1.9281    6.1015 O   0  0  0  0  0  0  0  0  0  0  0  0
    5.9413    0.2242    4.9980 C   0  0  1  0  0  0  0  0  0  0  0  0
    6.5919   -0.0364    6.2676 C   0  0  0  0  0  0  0  0  0  0  0  0
    5.7519   -0.8610    7.2342 C   0  0  0  0  0  0  0  0  0  0  0  0
    7.9673   -0.6862    6.1338 C   0  0  0  0  0  0  0  0  0  0  0  0
    5.7786   -0.8108    4.0371 N   0  0  0  0  0  0  0  0  0  0  0  0
    5.3879   -2.1240    4.4711 C   0  0  0  0  0  0  0  0  0  0  0  0
    6.0710   -0.4529    2.6796 C   0  0  0  0  0  0  0  0  0  0  0  0
    6.4182    0.7734    2.5352 O   0  0  0  0  0  0  0  0  0  0  0  0
    6.0025   -1.2756    1.5962 O   0  0  0  0  0  0  0  0  0  0  0  0
    6.2457   -0.8645    0.2463 C   0  0  0  0  0  0  0  0  0  0  0  0
    5.2490    0.1268   -0.2006 C   0  0  0  0  0  0  0  0  0  0  0  0
    5.3389    1.4798   -0.1590 C   0  0  0  0  0  0  0  0  0  0  0  0
    4.3132    2.3355   -0.5889 C   0  0  0  0  0  0  0  0  0  0  0  0
    3.1527    1.8266   -1.0805 C   0  0  0  0  0  0  0  0  0  0  0  0
    3.0306    0.4460   -1.1359 C   0  0  0  0  0  0  0  0  0  0  0  0
    4.0481   -0.4027   -0.7089 C   0  0  0  0  0  0  0  0  0  0  0  0
    2.0295    2.5704   -1.5303 N   0  0  0  0  0  0  0  0  0  0  0  0
    2.1247    3.0318   -2.8978 C   0  0  0  0  0  0  0  0  0  0  0  0
    3.2343    2.6941   -3.4497 O   0  0  0  0  0  0  0  0  0  0  0  0
    1.1253    3.7843   -3.6074 C   0  0  1  0  0  0  0  0  0  0  0  0
    0.7019    3.1935   -4.9616 C   0  0  0  0  0  0  0  0  0  0  0  0
    1.7975    3.0728   -5.9506 C   0  0  0  0  0  0  0  0  0  0  0  0
    1.1602    2.4973   -7.2292 C   0  0  0  0  0  0  0  0  0  0  0  0
    0.5728    1.2049   -6.9546 N   0  0  0  0  0  0  0  0  0  0  0  0
    1.3748    0.1353   -6.5042 C   0  0  0  0  0  0  0  0  0  0  0  0
    2.6072    0.2090   -6.3112 O   0  0  0  0  0  0  0  0  0  0  0  0
    0.7463   -1.1092   -6.2505 N   0  0  0  0  0  0  0  0  0  0  0  0
   -0.1474    4.0225   -2.9270 N   0  0  0  0  0  0  0  0  0  0  0  0
   -0.7781    5.2812   -3.0792 C   0  0  0  0  0  0  0  0  0  0  0  0
   -0.1731    6.1509   -3.8043 O   0  0  0  0  0  0  0  0  0  0  0  0
   -2.0505    5.6894   -2.5005 C   0  0  1  0  0  0  0  0  0  0  0  0
   -3.0644    5.9747   -3.6700 C   0  0  0  0  0  0  0  0  0  0  0  0
   -4.3363    6.4290   -3.0487 C   0  0  0  0  0  0  0  0  0  0  0  0
   -2.4640    7.1593   -4.4152 C   0  0  0  0  0  0  0  0  0  0  0  0
   -2.6747    4.7370   -1.6447 N   0  0  0  0  0  0  0  0  0  0  0  0
   -3.7134    3.8353   -1.9293 C   0  0  0  0  0  0  0  0  0  0  0  0
   -4.2872    3.6787   -3.0329 O   0  0  0  0  0  0  0  0  0  0  0  0
   -4.2072    2.9509   -0.8165 C   0  0  0  0  0  0  0  0  0  0  0  0
   -5.0836    1.8392   -1.3113 C   0  0  0  0  0  0  0  0  0  0  0  0
   -5.5445    1.0093   -0.0982 C   0  0  0  0  0  0  0  0  0  0  0  0
   -6.3778   -0.1503   -0.5306 C   0  0  0  0  0  0  0  0  0  0  0  0
   -6.8533   -1.0055    0.6075 C   0  0  0  0  0  0  0  0  0  0  0  0
   -7.7059   -0.2773    1.5131 N   0  0  0  0  0  0  0  0  0  0  0  0
   -7.4261    0.4788    2.6770 C   0  0  0  0  0  0  0  0  0  0  0  0
   -6.2814    0.6669    3.1484 O   0  0  0  0  0  0  0  0  0  0  0  0
   -8.6804    0.9905    3.2159 C   0  0  0  0  0  0  0  0  0  0  0  0
   -9.6967    0.5813    2.4385 C   0  0  0  0  0  0  0  0  0  0  0  0
   -9.1394   -0.2201    1.3508 C   0  0  0  0  0  0  0  0  0  0  0  0
   -9.7851   -0.7750    0.4191 O   0  0  0  0  0  0  0  0  0  0  0  0
   -1.0613    4.2764    1.3932 H   0  0  0  0  0  0  0  0  0  0  0  0
   -0.0979    4.7854    2.7727 H   0  0  0  0  0  0  0  0  0  0  0  0
    0.6420    3.5785    1.6979 H   0  0  0  0  0  0  0  0  0  0  0  0
   -0.6025    3.0956    4.0461 H   0  0  0  0  0  0  0  0  0  0  0  0
   -2.0395    2.9499    2.9694 H   0  0  0  0  0  0  0  0  0  0  0  0
    0.5431    1.6009    2.2292 H   0  0  0  0  0  0  0  0  0  0  0  0
   -1.2289    2.3858    0.7386 H   0  0  0  0  0  0  0  0  0  0  0  0
   -2.2268    0.9799    1.1658 H   0  0  0  0  0  0  0  0  0  0  0  0
   -0.5205    0.8268    0.4238 H   0  0  0  0  0  0  0  0  0  0  0  0
   -1.8692    0.1200    3.5432 H   0  0  0  0  0  0  0  0  0  0  0  0
   -1.0392   -0.7104    1.5831 H   0  0  0  0  0  0  0  0  0  0  0  0
    1.6140   -1.5013    2.9718 H   0  0  0  0  0  0  0  0  0  0  0  0
    1.4141   -0.3796    1.5171 H   0  0  0  0  0  0  0  0  0  0  0  0
    3.2740   -2.5227    2.6703 H   0  0  0  0  0  0  0  0  0  0  0  0
    4.0840   -3.0742    1.1036 H   0  0  0  0  0  0  0  0  0  0  0  0
    4.4900   -4.9910    2.2745 H   0  0  0  0  0  0  0  0  0  0  0  0
    3.0728   -4.7164    3.4197 H   0  0  0  0  0  0  0  0  0  0  0  0
    1.5692   -5.6145    2.0142 H   0  0  0  0  0  0  0  0  0  0  0  0
    2.9752   -6.4065    1.1116 H   0  0  0  0  0  0  0  0  0  0  0  0
    3.3216   -4.3626   -0.1001 H   0  0  0  0  0  0  0  0  0  0  0  0
    0.2911   -5.0537   -0.4723 H   0  0  0  0  0  0  0  0  0  0  0  0
    1.4268   -3.0924   -1.8036 H   0  0  0  0  0  0  0  0  0  0  0  0
    3.1171   -4.5345   -3.4501 H   0  0  0  0  0  0  0  0  0  0  0  0
    3.6768   -3.5990   -2.0403 H   0  0  0  0  0  0  0  0  0  0  0  0
    3.3475   -5.4103   -1.9390 H   0  0  0  0  0  0  0  0  0  0  0  0
   -1.2090   -4.1906   -2.4762 H   0  0  0  0  0  0  0  0  0  0  0  0
   -0.5659   -6.0677   -4.8268 H   0  0  0  0  0  0  0  0  0  0  0  0
   -0.1071   -3.9064   -5.5243 H   0  0  0  0  0  0  0  0  0  0  0  0
   -1.4878   -4.5517   -6.4382 H   0  0  0  0  0  0  0  0  0  0  0  0
   -1.6946   -3.2760   -5.0979 H   0  0  0  0  0  0  0  0  0  0  0  0
   -2.5827   -6.6153   -3.4263 H   0  0  0  0  0  0  0  0  0  0  0  0
   -3.7543   -4.0426   -5.9473 H   0  0  0  0  0  0  0  0  0  0  0  0
   -5.3104   -2.2867   -5.4939 H   0  0  0  0  0  0  0  0  0  0  0  0
   -6.1243   -1.9090   -3.2567 H   0  0  0  0  0  0  0  0  0  0  0  0
   -5.3572   -3.3131   -1.3936 H   0  0  0  0  0  0  0  0  0  0  0  0
   -3.7416   -5.1527   -1.7901 H   0  0  0  0  0  0  0  0  0  0  0  0
   -3.7314   -6.0593   -5.8527 H   0  0  0  0  0  0  0  0  0  0  0  0
    1.4072   -8.1636   -1.4411 H   0  0  0  0  0  0  0  0  0  0  0  0
    0.2197   -7.0049   -2.0060 H   0  0  0  0  0  0  0  0  0  0  0  0
    0.2834   -7.3171   -0.2304 H   0  0  0  0  0  0  0  0  0  0  0  0
   -2.5160   -3.2685    3.5192 H   0  0  0  0  0  0  0  0  0  0  0  0
   -2.9798   -1.6944    2.8760 H   0  0  0  0  0  0  0  0  0  0  0  0
   -2.1718   -2.8474    1.8217 H   0  0  0  0  0  0  0  0  0  0  0  0
   -0.7143   -0.2846    6.6464 H   0  0  0  0  0  0  0  0  0  0  0  0
   -2.0242   -0.3057    5.4919 H   0  0  0  0  0  0  0  0  0  0  0  0
   -0.7991   -1.7075    5.5873 H   0  0  0  0  0  0  0  0  0  0  0  0
    2.0510    2.0467    3.9283 H   0  0  0  0  0  0  0  0  0  0  0  0
    2.7056    1.8857    6.8094 H   0  0  0  0  0  0  0  0  0  0  0  0
    0.6516    3.8038    5.8475 H   0  0  0  0  0  0  0  0  0  0  0  0
    0.1242    2.0197    6.0252 H   0  0  0  0  0  0  0  0  0  0  0  0
    0.7568    2.9590    7.3826 H   0  0  0  0  0  0  0  0  0  0  0  0
    3.4956    4.1793    6.2156 H   0  0  0  0  0  0  0  0  0  0  0  0
    3.5066    3.4697    4.4829 H   0  0  0  0  0  0  0  0  0  0  0  0
    2.1605    4.3818    5.1032 H   0  0  0  0  0  0  0  0  0  0  0  0
    3.4294   -0.1684    3.9984 H   0  0  0  0  0  0  0  0  0  0  0  0
    6.4659    1.0673    4.4030 H   0  0  0  0  0  0  0  0  0  0  0  0
    6.7732    0.9423    6.7909 H   0  0  0  0  0  0  0  0  0  0  0  0
    5.5685   -0.3106    8.2022 H   0  0  0  0  0  0  0  0  0  0  0  0
    4.7557   -1.1198    6.8452 H   0  0  0  0  0  0  0  0  0  0  0  0
    6.3038   -1.7780    7.5701 H   0  0  0  0  0  0  0  0  0  0  0  0
    7.9356   -1.6931    6.5810 H   0  0  0  0  0  0  0  0  0  0  0  0
    8.7485   -0.1277    6.6991 H   0  0  0  0  0  0  0  0  0  0  0  0
    8.3013   -0.6609    5.0780 H   0  0  0  0  0  0  0  0  0  0  0  0
    4.3400   -2.2261    4.7646 H   0  0  0  0  0  0  0  0  0  0  0  0
    6.0722   -2.4900    5.3041 H   0  0  0  0  0  0  0  0  0  0  0  0
    5.5701   -2.8976    3.6652 H   0  0  0  0  0  0  0  0  0  0  0  0
    7.2571   -0.4075    0.2312 H   0  0  0  0  0  0  0  0  0  0  0  0
    6.3119   -1.7661   -0.3653 H   0  0  0  0  0  0  0  0  0  0  0  0
    6.2253    1.9536    0.1917 H   0  0  0  0  0  0  0  0  0  0  0  0
    4.4164    3.4079   -0.5372 H   0  0  0  0  0  0  0  0  0  0  0  0
    2.1438   -0.0503   -1.5121 H   0  0  0  0  0  0  0  0  0  0  0  0
    3.9240   -1.4846   -0.7640 H   0  0  0  0  0  0  0  0  0  0  0  0
    1.1868    2.7919   -0.9679 H   0  0  0  0  0  0  0  0  0  0  0  0
    1.5207    4.8046   -3.9250 H   0  0  0  0  0  0  0  0  0  0  0  0
   -0.0109    3.9666   -5.3636 H   0  0  0  0  0  0  0  0  0  0  0  0
    0.1064    2.2841   -4.8484 H   0  0  0  0  0  0  0  0  0  0  0  0
    2.6003    2.4290   -5.5972 H   0  0  0  0  0  0  0  0  0  0  0  0
    2.1663    4.0831   -6.2075 H   0  0  0  0  0  0  0  0  0  0  0  0
    0.3566    3.1894   -7.5803 H   0  0  0  0  0  0  0  0  0  0  0  0
    1.9347    2.4608   -8.0335 H   0  0  0  0  0  0  0  0  0  0  0  0
   -0.4675    1.0590   -7.0924 H   0  0  0  0  0  0  0  0  0  0  0  0
    0.3474   -1.6816   -7.0597 H   0  0  0  0  0  0  0  0  0  0  0  0
    0.6484   -1.5125   -5.2735 H   0  0  0  0  0  0  0  0  0  0  0  0
   -0.6165    3.3070   -2.3327 H   0  0  0  0  0  0  0  0  0  0  0  0
   -1.9868    6.7067   -2.0678 H   0  0  0  0  0  0  0  0  0  0  0  0
   -3.1110    5.1362   -4.3580 H   0  0  0  0  0  0  0  0  0  0  0  0
   -4.4788    6.1580   -1.9843 H   0  0  0  0  0  0  0  0  0  0  0  0
   -4.3691    7.5766   -3.0047 H   0  0  0  0  0  0  0  0  0  0  0  0
   -5.2532    6.1091   -3.6001 H   0  0  0  0  0  0  0  0  0  0  0  0
   -3.2642    7.8534   -4.7767 H   0  0  0  0  0  0  0  0  0  0  0  0
   -1.8378    6.8404   -5.2790 H   0  0  0  0  0  0  0  0  0  0  0  0
   -1.8556    7.7559   -3.7252 H   0  0  0  0  0  0  0  0  0  0  0  0
   -2.2934    4.7035   -0.6428 H   0  0  0  0  0  0  0  0  0  0  0  0
   -4.8122    3.6511   -0.1699 H   0  0  0  0  0  0  0  0  0  0  0  0
   -3.4246    2.5530   -0.1842 H   0  0  0  0  0  0  0  0  0  0  0  0
   -4.5787    1.2113   -2.0497 H   0  0  0  0  0  0  0  0  0  0  0  0
   -6.0229    2.3173   -1.7077 H   0  0  0  0  0  0  0  0  0  0  0  0
   -6.1283    1.6645    0.5972 H   0  0  0  0  0  0  0  0  0  0  0  0
   -4.6789    0.6356    0.4758 H   0  0  0  0  0  0  0  0  0  0  0  0
   -5.8102   -0.8161   -1.2111 H   0  0  0  0  0  0  0  0  0  0  0  0
   -7.2682    0.2522   -1.0678 H   0  0  0  0  0  0  0  0  0  0  0  0
   -7.4285   -1.8868    0.2264 H   0  0  0  0  0  0  0  0  0  0  0  0
   -5.9992   -1.4546    1.1766 H   0  0  0  0  0  0  0  0  0  0  0  0
   -8.8674    1.6060    4.0894 H   0  0  0  0  0  0  0  0  0  0  0  0
  -10.7498    0.7722    2.5428 H   0  0  0  0  0  0  0  0  0  0  0  0
  1  2  1  0
  2  3  1  0
  3  4  1  0
  3  5  1  0
  5  6  1  0
  6  7  1  0
  7  8  1  0
  8  9  2  0
  8 10  1  0
 10 11  1  0
 11 12  1  0
 12 13  1  0
 13 14  1  0
 14 15  1  0
 15 16  1  0
 16 17  1  0
 16 18  1  0
 18 19  2  0
 18 20  1  0
 20 21  1  0
 21 22  1  0
 21 23  1  0
 23 24  1  0
 24 25  2  0
 25 26  1  0
 26 27  2  0
 27 28  1  0
 28 29  2  0
 23 30  1  0
 15 31  1  0
 31 32  1  0
  6 33  1  0
 33 34  1  0
  5 35  1  0
 35 36  1  0
 35 37  1  0
 37 38  2  0
 37 39  1  0
 39 40  1  0
 40 41  1  0
 40 42  1  0
 39 43  1  0
 43 44  1  0
 44 45  2  0
 44 46  1  0
 46 47  1  0
 47 48  1  0
 47 49  1  0
 46 50  1  0
 50 51  1  0
 50 52  1  0
 52 53  2  0
 52 54  1  0
 54 55  1  0
 55 56  1  0
 56 57  1  0
 57 58  2  0
 58 59  1  0
 59 60  2  0
 60 61  1  0
 59 62  1  0
 62 63  1  0
 63 64  2  0
 63 65  1  0
 65 66  1  0
 66 67  1  0
 67 68  1  0
 68 69  1  0
 69 70  1  0
 70 71  2  0
 70 72  1  0
 65 73  1  0
 73 74  1  0
 74 75  2  0
 74 76  1  0
 76 77  1  0
 77 78  1  0
 77 79  1  0
 76 80  1  0
 80 81  1  0
 81 82  2  0
 81 83  1  0
 83 84  1  0
 84 85  1  0
 85 86  1  0
 86 87  1  0
 87 88  1  0
 88 89  1  0
 89 90  2  0
 89 91  1  0
 91 92  2  0
 92 93  1  0
 93 94  2  0
 14 10  1  0
 29 24  1  0
 61 56  2  0
 93 88  1  0
  1 95  1  0
  1 96  1  0
  1 97  1  0
  2 98  1  0
  2 99  1  0
  3100  1  6
  4101  1  0
  4102  1  0
  4103  1  0
  5104  1  1
  6105  1  6
  7106  1  0
  7107  1  0
 11108  1  0
 11109  1  0
 12110  1  0
 12111  1  0
 13112  1  0
 13113  1  0
 14114  1  6
 15115  1  1
 16116  1  1
 17117  1  0
 17118  1  0
 17119  1  0
 20120  1  0
 21121  1  6
 22122  1  0
 22123  1  0
 22124  1  0
 23125  1  1
 25126  1  0
 26127  1  0
 27128  1  0
 28129  1  0
 29130  1  0
 30131  1  0
 32132  1  0
 32133  1  0
 32134  1  0
 34135  1  0
 34136  1  0
 34137  1  0
 36138  1  0
 36139  1  0
 36140  1  0
 39141  1  6
 40142  1  0
 41143  1  0
 41144  1  0
 41145  1  0
 42146  1  0
 42147  1  0
 42148  1  0
 43149  1  0
 46150  1  6
 47151  1  0
 48152  1  0
 48153  1  0
 48154  1  0
 49155  1  0
 49156  1  0
 49157  1  0
 51158  1  0
 51159  1  0
 51160  1  0
 55161  1  0
 55162  1  0
 57163  1  0
 58164  1  0
 60165  1  0
 61166  1  0
 62167  1  0
 65168  1  6
 66169  1  0
 66170  1  0
 67171  1  0
 67172  1  0
 68173  1  0
 68174  1  0
 69175  1  0
 72176  1  0
 72177  1  0
 73178  1  0
 76179  1  1
 77180  1  0
 78181  1  0
 78182  1  0
 78183  1  0
 79184  1  0
 79185  1  0
 79186  1  0
 80187  1  0
 83188  1  0
 83189  1  0
 84190  1  0
 84191  1  0
 85192  1  0
 85193  1  0
 86194  1  0
 86195  1  0
 87196  1  0
 87197  1  0
 91198  1  0
 92199  1  0
M  END
$$$$

     RDKit          3D

199202  0  0  0  0  0  0  0  0999 V2000
    5.1472   -1.0740   -0.7872 C   0  0  0  0  0  0  0  0  0  0  0  0
    4.0991   -0.0074   -0.4521 C   0  0  0  0  0  0  0  0  0  0  0  0
    4.3585    0.6957    0.8064 C   0  0  2  0  0  0  0  0  0  0  0  0
    4.3833   -0.1942    2.0276 C   0  0  0  0  0  0  0  0  0  0  0  0
    3.5371    1.9604    1.0913 C   0  0  1  0  0  0  0  0  0  0  0  0
    3.7303    3.0225    0.0320 C   0  0  1  0  0  0  0  0  0  0  0  0
    2.7796    4.1227    0.1349 C   0  0  0  0  0  0  0  0  0  0  0  0
    2.8290    5.2514   -0.7908 C   0  0  0  0  0  0  0  0  0  0  0  0
    3.0229    6.4132   -0.2362 O   0  0  0  0  0  0  0  0  0  0  0  0
    2.6955    5.2730   -2.1771 N   0  0  0  0  0  0  0  0  0  0  0  0
    2.5856    4.2729   -3.2199 C   0  0  0  0  0  0  0  0  0  0  0  0
    3.1935    4.9008   -4.4751 C   0  0  0  0  0  0  0  0  0  0  0  0
    3.5731    6.3124   -4.0733 C   0  0  0  0  0  0  0  0  0  0  0  0
    2.5431    6.5301   -2.9738 C   0  0  1  0  0  0  0  0  0  0  0  0
    1.1565    6.6354   -3.5134 C   0  0  1  0  0  0  0  0  0  0  0  0
    0.1602    6.6488   -2.4017 C   0  0  1  0  0  0  0  0  0  0  0  0
    0.4151    7.8496   -1.5189 C   0  0  0  0  0  0  0  0  0  0  0  0
   -1.2585    6.6927   -2.8250 C   0  0  0  0  0  0  0  0  0  0  0  0
   -2.0526    7.5732   -2.3851 O   0  0  0  0  0  0  0  0  0  0  0  0
   -1.7451    5.7473   -3.7301 N   0  0  0  0  0  0  0  0  0  0  0  0
   -3.0756    5.6188   -4.2412 C   0  0  2  0  0  0  0  0  0  0  0  0
   -3.5928    4.2124   -4.3529 C   0  0  0  0  0  0  0  0  0  0  0  0
   -3.2308    6.2787   -5.6060 C   0  0  1  0  0  0  0  0  0  0  0  0
   -4.6025    6.0361   -6.0799 C   0  0  0  0  0  0  0  0  0  0  0  0
   -4.7637    5.1375   -7.1224 C   0  0  0  0  0  0  0  0  0  0  0  0
   -6.0347    4.8544   -7.6221 C   0  0  0  0  0  0  0  0  0  0  0  0
   -7.1456    5.4408   -7.1110 C   0  0  0  0  0  0  0  0  0  0  0  0
   -6.9977    6.3451   -6.0657 C   0  0  0  0  0  0  0  0  0  0  0  0
   -5.7307    6.6368   -5.5576 C   0  0  0  0  0  0  0  0  0  0  0  0
   -3.0079    7.6385   -5.5410 O   0  0  0  0  0  0  0  0  0  0  0  0
    1.0454    7.8317   -4.2230 O   0  0  0  0  0  0  0  0  0  0  0  0
    0.7088    7.6747   -5.5487 C   0  0  0  0  0  0  0  0  0  0  0  0
    5.0295    3.4140   -0.0321 O   0  0  0  0  0  0  0  0  0  0  0  0
    5.7941    3.1195   -1.1023 C   0  0  0  0  0  0  0  0  0  0  0  0
    2.1995    1.6632    1.4954 N   0  0  0  0  0  0  0  0  0  0  0  0
    2.1170    1.8507    3.0507 C   0  0  0  0  0  0  0  0  0  0  0  0
    1.0079    1.2691    0.9843 C   0  0  0  0  0  0  0  0  0  0  0  0
    0.1099    1.1260    2.0757 O   0  0  0  0  0  0  0  0  0  0  0  0
    0.1830    0.9212   -0.1378 C   0  0  1  0  0  0  0  0  0  0  0  0
    0.4847    0.2063   -1.3534 C   0  0  0  0  0  0  0  0  0  0  0  0
    1.4442    0.8370   -2.3092 C   0  0  0  0  0  0  0  0  0  0  0  0
   -0.8481   -0.0013   -2.1126 C   0  0  0  0  0  0  0  0  0  0  0  0
   -1.1843    0.5249    0.3837 N   0  0  0  0  0  0  0  0  0  0  0  0
   -2.3216    1.3269    0.1564 C   0  0  0  0  0  0  0  0  0  0  0  0
   -2.3321    2.4101   -0.4772 O   0  0  0  0  0  0  0  0  0  0  0  0
   -3.6135    0.8258    0.7217 C   0  0  1  0  0  0  0  0  0  0  0  0
   -3.6247    0.8531    2.2153 C   0  0  0  0  0  0  0  0  0  0  0  0
   -4.9605    0.3260    2.7437 C   0  0  0  0  0  0  0  0  0  0  0  0
   -3.3756    2.1977    2.8253 C   0  0  0  0  0  0  0  0  0  0  0  0
   -4.7824    1.4004    0.0928 N   0  0  0  0  0  0  0  0  0  0  0  0
   -5.1739    2.7814    0.2035 C   0  0  0  0  0  0  0  0  0  0  0  0
   -5.6055    0.4858   -0.7206 C   0  0  0  0  0  0  0  0  0  0  0  0
   -6.6389    0.8656   -1.2805 O   0  0  0  0  0  0  0  0  0  0  0  0
   -5.1647   -0.7644   -0.8109 O   0  0  0  0  0  0  0  0  0  0  0  0
   -5.6119   -1.9165   -1.4535 C   0  0  0  0  0  0  0  0  0  0  0  0
   -4.4912   -2.8974   -1.0539 C   0  0  0  0  0  0  0  0  0  0  0  0
   -3.4214   -2.8899   -1.9101 C   0  0  0  0  0  0  0  0  0  0  0  0
   -2.3284   -3.6369   -1.5504 C   0  0  0  0  0  0  0  0  0  0  0  0
   -2.3625   -4.3610   -0.3439 C   0  0  0  0  0  0  0  0  0  0  0  0
   -3.4484   -4.3499    0.4863 C   0  0  0  0  0  0  0  0  0  0  0  0
   -4.5604   -3.5909    0.1229 C   0  0  0  0  0  0  0  0  0  0  0  0
   -1.1351   -5.0328   -0.0558 N   0  0  0  0  0  0  0  0  0  0  0  0
   -0.7921   -6.3275   -0.4736 C   0  0  0  0  0  0  0  0  0  0  0  0
   -1.6651   -6.9565   -1.1479 O   0  0  0  0  0  0  0  0  0  0  0  0
    0.4796   -6.9946   -0.2025 C   0  0  1  0  0  0  0  0  0  0  0  0
    1.2855   -7.1386   -1.5282 C   0  0  0  0  0  0  0  0  0  0  0  0
    0.5518   -7.9331   -2.5405 C   0  0  0  0  0  0  0  0  0  0  0  0
    1.4194   -8.0648   -3.7834 C   0  0  0  0  0  0  0  0  0  0  0  0
    1.7502   -6.7781   -4.3514 N   0  0  0  0  0  0  0  0  0  0  0  0
    0.8380   -5.8313   -4.8286 C   0  0  0  0  0  0  0  0  0  0  0  0
   -0.4102   -6.0869   -4.7780 O   0  0  0  0  0  0  0  0  0  0  0  0
    1.1839   -4.5689   -5.3799 N   0  0  0  0  0  0  0  0  0  0  0  0
    1.3385   -6.2357    0.7161 N   0  0  0  0  0  0  0  0  0  0  0  0
    2.3594   -6.8794    1.4756 C   0  0  0  0  0  0  0  0  0  0  0  0
    2.4851   -8.1213    1.3014 O   0  0  0  0  0  0  0  0  0  0  0  0
    3.2603   -6.2184    2.4222 C   0  0  1  0  0  0  0  0  0  0  0  0
    4.6388   -6.1091    1.7240 C   0  0  0  0  0  0  0  0  0  0  0  0
    5.1347   -7.4832    1.3664 C   0  0  0  0  0  0  0  0  0  0  0  0
    5.6334   -5.4684    2.6629 C   0  0  0  0  0  0  0  0  0  0  0  0
    2.8259   -4.8835    2.7867 N   0  0  0  0  0  0  0  0  0  0  0  0
    3.0347   -4.4750    4.1517 C   0  0  0  0  0  0  0  0  0  0  0  0
    3.5980   -5.3172    4.8868 O   0  0  0  0  0  0  0  0  0  0  0  0
    2.5757   -3.1446    4.5437 C   0  0  0  0  0  0  0  0  0  0  0  0
    2.9819   -2.6766    5.8997 C   0  0  0  0  0  0  0  0  0  0  0  0
    2.5709   -3.5377    7.0391 C   0  0  0  0  0  0  0  0  0  0  0  0
    1.1127   -3.8003    7.1882 C   0  0  0  0  0  0  0  0  0  0  0  0
    0.2362   -2.6058    7.3857 C   0  0  0  0  0  0  0  0  0  0  0  0
   -1.1655   -3.0479    7.5137 N   0  0  0  0  0  0  0  0  0  0  0  0
   -2.1142   -3.2189    6.4752 C   0  0  0  0  0  0  0  0  0  0  0  0
   -1.9382   -3.0230    5.2295 O   0  0  0  0  0  0  0  0  0  0  0  0
   -3.3610   -3.6678    7.0630 C   0  0  0  0  0  0  0  0  0  0  0  0
   -3.2230   -3.7799    8.3994 C   0  0  0  0  0  0  0  0  0  0  0  0
   -1.8274   -3.3882    8.7097 C   0  0  0  0  0  0  0  0  0  0  0  0
   -1.4098   -3.3970    9.8922 O   0  0  0  0  0  0  0  0  0  0  0  0
    4.6555   -1.7612   -1.5063 H   0  0  0  0  0  0  0  0  0  0  0  0
    5.4632   -1.6741    0.0543 H   0  0  0  0  0  0  0  0  0  0  0  0
    5.9859   -0.6287   -1.3702 H   0  0  0  0  0  0  0  0  0  0  0  0
    3.1185   -0.5730   -0.4612 H   0  0  0  0  0  0  0  0  0  0  0  0
    4.1200    0.6398   -1.3529 H   0  0  0  0  0  0  0  0  0  0  0  0
    5.4290    1.0740    0.7521 H   0  0  0  0  0  0  0  0  0  0  0  0
    3.3652   -0.4234    2.4148 H   0  0  0  0  0  0  0  0  0  0  0  0
    4.8927   -1.1333    1.8850 H   0  0  0  0  0  0  0  0  0  0  0  0
    4.9335    0.3054    2.8790 H   0  0  0  0  0  0  0  0  0  0  0  0
    4.0780    2.3907    2.0165 H   0  0  0  0  0  0  0  0  0  0  0  0
    3.5475    2.5198   -0.9793 H   0  0  0  0  0  0  0  0  0  0  0  0
    2.7582    4.5786    1.1927 H   0  0  0  0  0  0  0  0  0  0  0  0
    1.7435    3.6545    0.0785 H   0  0  0  0  0  0  0  0  0  0  0  0
    3.2238    3.4145   -3.0102 H   0  0  0  0  0  0  0  0  0  0  0  0
    1.5482    4.0044   -3.4763 H   0  0  0  0  0  0  0  0  0  0  0  0
    2.4479    4.9643   -5.2865 H   0  0  0  0  0  0  0  0  0  0  0  0
    4.0479    4.3423   -4.8697 H   0  0  0  0  0  0  0  0  0  0  0  0
    3.3852    7.0425   -4.8714 H   0  0  0  0  0  0  0  0  0  0  0  0
    4.6082    6.3712   -3.6603 H   0  0  0  0  0  0  0  0  0  0  0  0
    2.8248    7.3806   -2.3862 H   0  0  0  0  0  0  0  0  0  0  0  0
    0.9416    5.7671   -4.2121 H   0  0  0  0  0  0  0  0  0  0  0  0
    0.2512    5.7076   -1.7742 H   0  0  0  0  0  0  0  0  0  0  0  0
    1.2371    8.4927   -1.8604 H   0  0  0  0  0  0  0  0  0  0  0  0
   -0.4910    8.5305   -1.4948 H   0  0  0  0  0  0  0  0  0  0  0  0
    0.5695    7.5915   -0.4523 H   0  0  0  0  0  0  0  0  0  0  0  0
   -1.0398    5.0240   -4.0851 H   0  0  0  0  0  0  0  0  0  0  0  0
   -3.8043    6.2015   -3.6033 H   0  0  0  0  0  0  0  0  0  0  0  0
   -4.6802    4.1216   -4.1578 H   0  0  0  0  0  0  0  0  0  0  0  0
   -3.3887    3.7839   -5.3751 H   0  0  0  0  0  0  0  0  0  0  0  0
   -3.0419    3.5304   -3.6516 H   0  0  0  0  0  0  0  0  0  0  0  0
   -2.4798    5.8811   -6.3326 H   0  0  0  0  0  0  0  0  0  0  0  0
   -3.9385    4.6255   -7.5986 H   0  0  0  0  0  0  0  0  0  0  0  0
   -6.1695    4.1432   -8.4432 H   0  0  0  0  0  0  0  0  0  0  0  0
   -8.1503    5.2212   -7.4972 H   0  0  0  0  0  0  0  0  0  0  0  0
   -7.8622    6.8510   -5.6207 H   0  0  0  0  0  0  0  0  0  0  0  0
   -5.6174    7.3412   -4.7362 H   0  0  0  0  0  0  0  0  0  0  0  0
   -3.5344    7.9948   -4.7690 H   0  0  0  0  0  0  0  0  0  0  0  0
    1.4220    7.0829   -6.1446 H   0  0  0  0  0  0  0  0  0  0  0  0
   -0.3198    7.2054   -5.5988 H   0  0  0  0  0  0  0  0  0  0  0  0
    0.5737    8.6731   -5.9951 H   0  0  0  0  0  0  0  0  0  0  0  0
    5.9493    2.0553   -1.3539 H   0  0  0  0  0  0  0  0  0  0  0  0
    6.8366    3.5313   -1.0326 H   0  0  0  0  0  0  0  0  0  0  0  0
    5.3834    3.6078   -2.0294 H   0  0  0  0  0  0  0  0  0  0  0  0
    1.8166    2.9041    3.1211 H   0  0  0  0  0  0  0  0  0  0  0  0
    1.3882    1.1602    3.4369 H   0  0  0  0  0  0  0  0  0  0  0  0
    3.1274    1.7456    3.4561 H   0  0  0  0  0  0  0  0  0  0  0  0
   -0.1420    1.9952   -0.5645 H   0  0  0  0  0  0  0  0  0  0  0  0
    0.8611   -0.8508   -1.1853 H   0  0  0  0  0  0  0  0  0  0  0  0
    2.2218    0.1344   -2.6160 H   0  0  0  0  0  0  0  0  0  0  0  0
    1.7520    1.8319   -1.9916 H   0  0  0  0  0  0  0  0  0  0  0  0
    0.8497    1.0442   -3.2637 H   0  0  0  0  0  0  0  0  0  0  0  0
   -0.6532   -0.5919   -3.0333 H   0  0  0  0  0  0  0  0  0  0  0  0
   -1.6263   -0.4159   -1.4650 H   0  0  0  0  0  0  0  0  0  0  0  0
   -1.1487    1.0066   -2.4586 H   0  0  0  0  0  0  0  0  0  0  0  0
   -1.2257   -0.3687    0.9185 H   0  0  0  0  0  0  0  0  0  0  0  0
   -3.5970   -0.2845    0.4518 H   0  0  0  0  0  0  0  0  0  0  0  0
   -2.8454    0.1376    2.5719 H   0  0  0  0  0  0  0  0  0  0  0  0
   -5.7785    0.8489    2.2556 H   0  0  0  0  0  0  0  0  0  0  0  0
   -5.0172   -0.7640    2.4520 H   0  0  0  0  0  0  0  0  0  0  0  0
   -4.9698    0.4219    3.8553 H   0  0  0  0  0  0  0  0  0  0  0  0
   -2.6118    2.0656    3.6468 H   0  0  0  0  0  0  0  0  0  0  0  0
   -2.8948    2.9117    2.1150 H   0  0  0  0  0  0  0  0  0  0  0  0
   -4.2600    2.6157    3.3565 H   0  0  0  0  0  0  0  0  0  0  0  0
   -4.4007    3.5022   -0.1421 H   0  0  0  0  0  0  0  0  0  0  0  0
   -6.1433    2.9574   -0.3029 H   0  0  0  0  0  0  0  0  0  0  0  0
   -5.3425    2.9989    1.2824 H   0  0  0  0  0  0  0  0  0  0  0  0
   -5.6340   -1.8222   -2.5380 H   0  0  0  0  0  0  0  0  0  0  0  0
   -6.5555   -2.3351   -1.0915 H   0  0  0  0  0  0  0  0  0  0  0  0
   -3.4200   -2.3260   -2.8402 H   0  0  0  0  0  0  0  0  0  0  0  0
   -1.4711   -3.6505   -2.1994 H   0  0  0  0  0  0  0  0  0  0  0  0
   -3.4421   -4.9129    1.3954 H   0  0  0  0  0  0  0  0  0  0  0  0
   -5.4457   -3.5380    0.7334 H   0  0  0  0  0  0  0  0  0  0  0  0
   -0.4640   -4.4436    0.5287 H   0  0  0  0  0  0  0  0  0  0  0  0
    0.3999   -8.0257    0.1397 H   0  0  0  0  0  0  0  0  0  0  0  0
    1.4472   -6.1039   -1.9303 H   0  0  0  0  0  0  0  0  0  0  0  0
    2.2699   -7.5782   -1.3324 H   0  0  0  0  0  0  0  0  0  0  0  0
   -0.3938   -7.4547   -2.8916 H   0  0  0  0  0  0  0  0  0  0  0  0
    0.3533   -8.9312   -2.1505 H   0  0  0  0  0  0  0  0  0  0  0  0
    0.7977   -8.6079   -4.5334 H   0  0  0  0  0  0  0  0  0  0  0  0
    2.3017   -8.6752   -3.5792 H   0  0  0  0  0  0  0  0  0  0  0  0
    2.7792   -6.5329   -4.4162 H   0  0  0  0  0  0  0  0  0  0  0  0
    2.1415   -4.5118   -5.8120 H   0  0  0  0  0  0  0  0  0  0  0  0
    0.5572   -3.7430   -5.3758 H   0  0  0  0  0  0  0  0  0  0  0  0
    1.2596   -5.2123    0.8489 H   0  0  0  0  0  0  0  0  0  0  0  0
    3.4269   -6.8172    3.3061 H   0  0  0  0  0  0  0  0  0  0  0  0
    4.5182   -5.4833    0.8197 H   0  0  0  0  0  0  0  0  0  0  0  0
    4.9353   -8.1610    2.2157 H   0  0  0  0  0  0  0  0  0  0  0  0
    4.6319   -7.8284    0.4446 H   0  0  0  0  0  0  0  0  0  0  0  0
    6.2390   -7.3791    1.1869 H   0  0  0  0  0  0  0  0  0  0  0  0
    5.3475   -4.4366    2.9327 H   0  0  0  0  0  0  0  0  0  0  0  0
    5.8580   -6.1039    3.5346 H   0  0  0  0  0  0  0  0  0  0  0  0
    6.5929   -5.4166    2.0811 H   0  0  0  0  0  0  0  0  0  0  0  0
    2.3875   -4.2030    2.1580 H   0  0  0  0  0  0  0  0  0  0  0  0
    1.4696   -3.0211    4.3754 H   0  0  0  0  0  0  0  0  0  0  0  0
    3.0229   -2.4113    3.8054 H   0  0  0  0  0  0  0  0  0  0  0  0
    2.6644   -1.6097    6.0240 H   0  0  0  0  0  0  0  0  0  0  0  0
    4.1070   -2.6209    5.9062 H   0  0  0  0  0  0  0  0  0  0  0  0
    3.0694   -4.5242    6.9520 H   0  0  0  0  0  0  0  0  0  0  0  0
    2.9467   -3.0333    7.9785 H   0  0  0  0  0  0  0  0  0  0  0  0
    0.7377   -4.3756    6.3155 H   0  0  0  0  0  0  0  0  0  0  0  0
    0.9947   -4.4506    8.0896 H   0  0  0  0  0  0  0  0  0  0  0  0
    0.4708   -2.0657    8.3305 H   0  0  0  0  0  0  0  0  0  0  0  0
    0.3083   -1.8778    6.5511 H   0  0  0  0  0  0  0  0  0  0  0  0
   -4.2849   -3.8958    6.5463 H   0  0  0  0  0  0  0  0  0  0  0  0
   -3.9984   -4.0914    9.0688 H   0  0  0  0  0  0  0  0  0  0  0  0
  1  2  1  0
  2  3  1  0
  3  4  1  0
  3  5  1  0
  5  6  1  0
  6  7  1  0
  7  8  1  0
  8  9  2  0
  8 10  1  0
 10 11  1  0
 11 12  1  0
 12 13  1  0
 13 14  1  0
 14 15  1  0
 15 16  1  0
 16 17  1  0
 16 18  1  0
 18 19  2  0
 18 20  1  0
 20 21  1  0
 21 22  1  0
 21 23  1  0
 23 24  1  0
 24 25  2  0
 25 26  1  0
 26 27  2  0
 27 28  1  0
 28 29  2  0
 23 30  1  0
 15 31  1  0
 31 32  1  0
  6 33  1  0
 33 34  1  0
  5 35  1  0
 35 36  1  0
 35 37  1  0
 37 38  2  0
 37 39  1  0
 39 40  1  0
 40 41  1  0
 40 42  1  0
 39 43  1  0
 43 44  1  0
 44 45  2  0
 44 46  1  0
 46 47  1  0
 47 48  1  0
 47 49  1  0
 46 50  1  0
 50 51  1  0
 50 52  1  0
 52 53  2  0
 52 54  1  0
 54 55  1  0
 55 56  1  0
 56 57  1  0
 57 58  2  0
 58 59  1  0
 59 60  2  0
 60 61  1  0
 59 62  1  0
 62 63  1  0
 63 64  2  0
 63 65  1  0
 65 66  1  0
 66 67  1  0
 67 68  1  0
 68 69  1  0
 69 70  1  0
 70 71  2  0
 70 72  1  0
 65 73  1  0
 73 74  1  0
 74 75  2  0
 74 76  1  0
 76 77  1  0
 77 78  1  0
 77 79  1  0
 76 80  1  0
 80 81  1  0
 81 82  2  0
 81 83  1  0
 83 84  1  0
 84 85  1  0
 85 86  1  0
 86 87  1  0
 87 88  1  0
 88 89  1  0
 89 90  2  0
 89 91  1  0
 91 92  2  0
 92 93  1  0
 93 94  2  0
 14 10  1  0
 29 24  1  0
 61 56  2  0
 93 88  1  0
  1 95  1  0
  1 96  1  0
  1 97  1  0
  2 98  1  0
  2 99  1  0
  3100  1  6
  4101  1  0
  4102  1  0
  4103  1  0
  5104  1  1
  6105  1  6
  7106  1  0
  7107  1  0
 11108  1  0
 11109  1  0
 12110  1  0
 12111  1  0
 13112  1  0
 13113  1  0
 14114  1  1
 15115  1  6
 16116  1  1
 17117  1  0
 17118  1  0
 17119  1  0
 20120  1  0
 21121  1  1
 22122  1  0
 22123  1  0
 22124  1  0
 23125  1  6
 25126  1  0
 26127  1  0
 27128  1  0
 28129  1  0
 29130  1  0
 30131  1  0
 32132  1  0
 32133  1  0
 32134  1  0
 34135  1  0
 34136  1  0
 34137  1  0
 36138  1  0
 36139  1  0
 36140  1  0
 39141  1  6
 40142  1  0
 41143  1  0
 41144  1  0
 41145  1  0
 42146  1  0
 42147  1  0
 42148  1  0
 43149  1  0
 46150  1  1
 47151  1  0
 48152  1  0
 48153  1  0
 48154  1  0
 49155  1  0
 49156  1  0
 49157  1  0
 51158  1  0
 51159  1  0
 51160  1  0
 55161  1  0
 55162  1  0
 57163  1  0
 58164  1  0
 60165  1  0
 61166  1  0
 62167  1  0
 65168  1  1
 66169  1  0
 66170  1  0
 67171  1  0
 67172  1  0
 68173  1  0
 68174  1  0
 69175  1  0
 72176  1  0
 72177  1  0
 73178  1  0
 76179  1  1
 77180  1  0
 78181  1  0
 78182  1  0
 78183  1  0
 79184  1  0
 79185  1  0
 79186  1  0
 80187  1  0
 83188  1  0
 83189  1  0
 84190  1  0
 84191  1  0
 85192  1  0
 85193  1  0
 86194  1  0
 86195  1  0
 87196  1  0
 87197  1  0
 91198  1  0
 92199  1  0
M  END
$$$$

     RDKit          3D

199202  0  0  0  0  0  0  0  0999 V2000
    0.0119   -2.5012    8.0813 C   0  0  0  0  0  0  0  0  0  0  0  0
    0.1514   -1.8355    6.7488 C   0  0  0  0  0  0  0  0  0  0  0  0
   -0.4036   -2.6093    5.5931 C   0  0  2  0  0  0  0  0  0  0  0  0
    0.3284   -3.9276    5.5070 C   0  0  0  0  0  0  0  0  0  0  0  0
   -0.1610   -1.7881    4.3307 C   0  0  1  0  0  0  0  0  0  0  0  0
   -0.6345   -2.4261    3.0924 C   0  0  1  0  0  0  0  0  0  0  0  0
   -1.9716   -2.2313    2.5149 C   0  0  0  0  0  0  0  0  0  0  0  0
   -2.1828   -0.8549    2.0346 C   0  0  0  0  0  0  0  0  0  0  0  0
   -1.2185   -0.0076    1.9269 O   0  0  0  0  0  0  0  0  0  0  0  0
   -3.4523   -0.3261    1.6445 N   0  0  0  0  0  0  0  0  0  0  0  0
   -3.5588    1.0655    1.1696 C   0  0  0  0  0  0  0  0  0  0  0  0
   -4.9052    1.4848    1.7253 C   0  0  0  0  0  0  0  0  0  0  0  0
   -5.7262    0.2334    1.4124 C   0  0  0  0  0  0  0  0  0  0  0  0
   -4.7567   -0.8997    1.6130 C   0  0  1  0  0  0  0  0  0  0  0  0
   -4.9166   -1.9142    0.5269 C   0  0  1  0  0  0  0  0  0  0  0  0
   -6.2872   -2.5375    0.5525 C   0  0  1  0  0  0  0  0  0  0  0  0
   -6.5895   -3.2034    1.8538 C   0  0  0  0  0  0  0  0  0  0  0  0
   -7.3729   -1.7344   -0.0230 C   0  0  0  0  0  0  0  0  0  0  0  0
   -8.3214   -1.2295    0.6357 O   0  0  0  0  0  0  0  0  0  0  0  0
   -7.3990   -1.4858   -1.4413 N   0  0  0  0  0  0  0  0  0  0  0  0
   -8.4590   -0.7138   -2.0376 C   0  0  2  0  0  0  0  0  0  0  0  0
   -9.5003   -1.6855   -2.6553 C   0  0  0  0  0  0  0  0  0  0  0  0
   -8.0286    0.2868   -3.0513 C   0  0  1  0  0  0  0  0  0  0  0  0
   -7.3744    1.4679   -2.4771 C   0  0  0  0  0  0  0  0  0  0  0  0
   -8.0916    2.6125   -2.1274 C   0  0  0  0  0  0  0  0  0  0  0  0
   -7.4850    3.7296   -1.5936 C   0  0  0  0  0  0  0  0  0  0  0  0
   -6.1224    3.6821   -1.4113 C   0  0  0  0  0  0  0  0  0  0  0  0
   -5.4132    2.5431   -1.7604 C   0  0  0  0  0  0  0  0  0  0  0  0
   -6.0117    1.4326   -2.2906 C   0  0  0  0  0  0  0  0  0  0  0  0
   -7.3573   -0.2767   -4.1323 O   0  0  0  0  0  0  0  0  0  0  0  0
   -4.6902   -1.3389   -0.7267 O   0  0  0  0  0  0  0  0  0  0  0  0
   -3.6335   -2.0516   -1.3285 C   0  0  0  0  0  0  0  0  0  0  0  0
    0.2864   -1.9022    2.0721 O   0  0  0  0  0  0  0  0  0  0  0  0
    1.0391   -2.9790    1.6584 C   0  0  0  0  0  0  0  0  0  0  0  0
   -0.2348   -0.3795    4.5354 N   0  0  0  0  0  0  0  0  0  0  0  0
    0.9652    0.4165    4.3030 C   0  0  0  0  0  0  0  0  0  0  0  0
   -1.4752    0.1691    4.9482 C   0  0  0  0  0  0  0  0  0  0  0  0
   -2.4108   -0.6967    5.1291 O   0  0  0  0  0  0  0  0  0  0  0  0
   -1.8333    1.5599    5.1927 C   0  0  1  0  0  0  0  0  0  0  0  0
   -2.6565    1.7415    6.4503 C   0  0  0  0  0  0  0  0  0  0  0  0
   -3.9148    0.9250    6.2729 C   0  0  0  0  0  0  0  0  0  0  0  0
   -1.9894    1.3143    7.7089 C   0  0  0  0  0  0  0  0  0  0  0  0
   -0.8043    2.5242    5.0426 N   0  0  0  0  0  0  0  0  0  0  0  0
   -0.8654    3.5538    4.0683 C   0  0  0  0  0  0  0  0  0  0  0  0
   -1.8687    3.6102    3.3017 O   0  0  0  0  0  0  0  0  0  0  0  0
    0.1780    4.5878    3.8770 C   0  0  1  0  0  0  0  0  0  0  0  0
   -0.3541    5.9305    3.5071 C   0  0  0  0  0  0  0  0  0  0  0  0
    0.8381    6.8744    3.3504 C   0  0  0  0  0  0  0  0  0  0  0  0
   -1.3243    6.5541    4.4349 C   0  0  0  0  0  0  0  0  0  0  0  0
    1.0944    4.5594    4.9842 N   0  0  0  0  0  0  0  0  0  0  0  0
    0.6908    4.9709    6.3131 C   0  0  0  0  0  0  0  0  0  0  0  0
    2.4732    4.1380    4.8270 C   0  0  0  0  0  0  0  0  0  0  0  0
    3.2621    4.1006    5.8118 O   0  0  0  0  0  0  0  0  0  0  0  0
    2.9150    3.7788    3.5906 O   0  0  0  0  0  0  0  0  0  0  0  0
    4.2633    3.3437    3.3521 C   0  0  0  0  0  0  0  0  0  0  0  0
    4.2839    3.0751    1.8680 C   0  0  0  0  0  0  0  0  0  0  0  0
    4.6826    4.0232    0.9566 C   0  0  0  0  0  0  0  0  0  0  0  0
    4.6389    3.6996   -0.4065 C   0  0  0  0  0  0  0  0  0  0  0  0
    4.2122    2.4690   -0.8535 C   0  0  0  0  0  0  0  0  0  0  0  0
    3.8275    1.5657    0.1149 C   0  0  0  0  0  0  0  0  0  0  0  0
    3.8583    1.8513    1.4626 C   0  0  0  0  0  0  0  0  0  0  0  0
    4.1348    2.0823   -2.1981 N   0  0  0  0  0  0  0  0  0  0  0  0
    4.5554    2.8060   -3.3197 C   0  0  0  0  0  0  0  0  0  0  0  0
    5.0875    3.9299   -3.2324 O   0  0  0  0  0  0  0  0  0  0  0  0
    4.3606    2.2099   -4.7045 C   0  0  1  0  0  0  0  0  0  0  0  0
    5.6777    2.0774   -5.4054 C   0  0  0  0  0  0  0  0  0  0  0  0
    5.5437    1.4949   -6.7729 C   0  0  0  0  0  0  0  0  0  0  0  0
    6.8888    1.3571   -7.4657 C   0  0  0  0  0  0  0  0  0  0  0  0
    7.7735    0.4792   -6.7109 N   0  0  0  0  0  0  0  0  0  0  0  0
    9.0956    0.1802   -7.1434 C   0  0  0  0  0  0  0  0  0  0  0  0
    9.5241    0.6850   -8.2115 O   0  0  0  0  0  0  0  0  0  0  0  0
    9.9021   -0.6943   -6.3397 N   0  0  0  0  0  0  0  0  0  0  0  0
    3.6482    0.9431   -4.5594 N   0  0  0  0  0  0  0  0  0  0  0  0
    2.2154    1.0440   -4.6269 C   0  0  0  0  0  0  0  0  0  0  0  0
    1.7247    2.1881   -4.8050 O   0  0  0  0  0  0  0  0  0  0  0  0
    1.3174   -0.1060   -4.4964 C   0  0  1  0  0  0  0  0  0  0  0  0
    0.2365   -0.0360   -5.5337 C   0  0  0  0  0  0  0  0  0  0  0  0
   -0.6949   -1.2453   -5.3788 C   0  0  0  0  0  0  0  0  0  0  0  0
    0.7524    0.0399   -6.9484 C   0  0  0  0  0  0  0  0  0  0  0  0
    1.9652   -1.3744   -4.3916 N   0  0  0  0  0  0  0  0  0  0  0  0
    1.9374   -2.1993   -3.2218 C   0  0  0  0  0  0  0  0  0  0  0  0
    1.3354   -1.8735   -2.1688 O   0  0  0  0  0  0  0  0  0  0  0  0
    2.6816   -3.4934   -3.3325 C   0  0  0  0  0  0  0  0  0  0  0  0
    2.5840   -4.3279   -2.0852 C   0  0  0  0  0  0  0  0  0  0  0  0
    3.3095   -5.6298   -2.2374 C   0  0  0  0  0  0  0  0  0  0  0  0
    4.7605   -5.4154   -2.4791 C   0  0  0  0  0  0  0  0  0  0  0  0
    5.5323   -6.7333   -2.6333 C   0  0  0  0  0  0  0  0  0  0  0  0
    5.0241   -7.4956   -3.7573 N   0  0  0  0  0  0  0  0  0  0  0  0
    3.9918   -8.4784   -3.7470 C   0  0  0  0  0  0  0  0  0  0  0  0
    3.3115   -8.9095   -2.7979 O   0  0  0  0  0  0  0  0  0  0  0  0
    3.8661   -8.9176   -5.1276 C   0  0  0  0  0  0  0  0  0  0  0  0
    4.7205   -8.2838   -5.9118 C   0  0  0  0  0  0  0  0  0  0  0  0
    5.4985   -7.3556   -5.1072 C   0  0  0  0  0  0  0  0  0  0  0  0
    6.4124   -6.5605   -5.4381 O   0  0  0  0  0  0  0  0  0  0  0  0
    0.0288   -1.7766    8.9210 H   0  0  0  0  0  0  0  0  0  0  0  0
    0.9006   -3.1463    8.2450 H   0  0  0  0  0  0  0  0  0  0  0  0
   -0.8743   -3.1508    8.0949 H   0  0  0  0  0  0  0  0  0  0  0  0
   -0.2816   -0.8219    6.8455 H   0  0  0  0  0  0  0  0  0  0  0  0
    1.2584   -1.6381    6.6189 H   0  0  0  0  0  0  0  0  0  0  0  0
   -1.4746   -2.8534    5.7102 H   0  0  0  0  0  0  0  0  0  0  0  0
    1.2512   -3.8408    4.8897 H   0  0  0  0  0  0  0  0  0  0  0  0
    0.6556   -4.1935    6.5302 H   0  0  0  0  0  0  0  0  0  0  0  0
   -0.3151   -4.7663    5.1742 H   0  0  0  0  0  0  0  0  0  0  0  0
    1.0072   -1.9730    4.1893 H   0  0  0  0  0  0  0  0  0  0  0  0
   -0.3661   -3.4931    3.1329 H   0  0  0  0  0  0  0  0  0  0  0  0
   -2.0808   -2.8671    1.5746 H   0  0  0  0  0  0  0  0  0  0  0  0
   -2.8106   -2.5955    3.1475 H   0  0  0  0  0  0  0  0  0  0  0  0
   -2.7404    1.6602    1.5771 H   0  0  0  0  0  0  0  0  0  0  0  0
   -3.5763    1.0213    0.0694 H   0  0  0  0  0  0  0  0  0  0  0  0
   -4.8263    1.6717    2.8100 H   0  0  0  0  0  0  0  0  0  0  0  0
   -5.3238    2.3355    1.1507 H   0  0  0  0  0  0  0  0  0  0  0  0
   -6.5386    0.1986    2.1628 H   0  0  0  0  0  0  0  0  0  0  0  0
   -6.0469    0.3112    0.3728 H   0  0  0  0  0  0  0  0  0  0  0  0
   -4.9047   -1.4008    2.6022 H   0  0  0  0  0  0  0  0  0  0  0  0
   -4.1856   -2.7359    0.6194 H   0  0  0  0  0  0  0  0  0  0  0  0
   -6.1756   -3.4282   -0.1852 H   0  0  0  0  0  0  0  0  0  0  0  0
   -6.9577   -2.5182    2.6284 H   0  0  0  0  0  0  0  0  0  0  0  0
   -5.6721   -3.6918    2.2043 H   0  0  0  0  0  0  0  0  0  0  0  0
   -7.3448   -4.0176    1.6678 H   0  0  0  0  0  0  0  0  0  0  0  0
   -6.6215   -1.8798   -2.0386 H   0  0  0  0  0  0  0  0  0  0  0  0
   -9.0277   -0.2319   -1.2195 H   0  0  0  0  0  0  0  0  0  0  0  0
  -10.2991   -1.9266   -1.9414 H   0  0  0  0  0  0  0  0  0  0  0  0
   -8.9929   -2.5741   -3.0605 H   0  0  0  0  0  0  0  0  0  0  0  0
   -9.9850   -1.1502   -3.4989 H   0  0  0  0  0  0  0  0  0  0  0  0
   -8.9906    0.6829   -3.5139 H   0  0  0  0  0  0  0  0  0  0  0  0
   -9.1601    2.5623   -2.3035 H   0  0  0  0  0  0  0  0  0  0  0  0
   -8.1033    4.5767   -1.3483 H   0  0  0  0  0  0  0  0  0  0  0  0
   -5.6368    4.5610   -0.9911 H   0  0  0  0  0  0  0  0  0  0  0  0
   -4.3391    2.5595   -1.5975 H   0  0  0  0  0  0  0  0  0  0  0  0
   -5.4485    0.5465   -2.5625 H   0  0  0  0  0  0  0  0  0  0  0  0
   -6.5944   -0.8238   -3.8967 H   0  0  0  0  0  0  0  0  0  0  0  0
   -3.4030   -1.6403   -2.3403 H   0  0  0  0  0  0  0  0  0  0  0  0
   -2.7059   -2.0176   -0.7492 H   0  0  0  0  0  0  0  0  0  0  0  0
   -3.9692   -3.1126   -1.5049 H   0  0  0  0  0  0  0  0  0  0  0  0
    0.4492   -3.8030    1.2294 H   0  0  0  0  0  0  0  0  0  0  0  0
    1.7535   -3.2519    2.4388 H   0  0  0  0  0  0  0  0  0  0  0  0
    1.6646   -2.6048    0.7934 H   0  0  0  0  0  0  0  0  0  0  0  0
    1.4768    0.6796    5.2600 H   0  0  0  0  0  0  0  0  0  0  0  0
    1.6871   -0.1897    3.6541 H   0  0  0  0  0  0  0  0  0  0  0  0
    0.8155    1.3261    3.7355 H   0  0  0  0  0  0  0  0  0  0  0  0
   -2.5872    1.8202    4.3754 H   0  0  0  0  0  0  0  0  0  0  0  0
   -3.0084    2.7932    6.4617 H   0  0  0  0  0  0  0  0  0  0  0  0
   -3.8617   -0.0426    6.8171 H   0  0  0  0  0  0  0  0  0  0  0  0
   -4.7901    1.4669    6.7471 H   0  0  0  0  0  0  0  0  0  0  0  0
   -4.1913    0.8239    5.2131 H   0  0  0  0  0  0  0  0  0  0  0  0
   -2.1955    0.2636    8.0130 H   0  0  0  0  0  0  0  0  0  0  0  0
   -0.8618    1.3579    7.6376 H   0  0  0  0  0  0  0  0  0  0  0  0
   -2.3253    1.9386    8.5868 H   0  0  0  0  0  0  0  0  0  0  0  0
    0.0226    2.4677    5.6830 H   0  0  0  0  0  0  0  0  0  0  0  0
    0.7195    4.2383    2.9336 H   0  0  0  0  0  0  0  0  0  0  0  0
   -0.7992    5.8916    2.4891 H   0  0  0  0  0  0  0  0  0  0  0  0
    0.5430    7.8305    2.8687 H   0  0  0  0  0  0  0  0  0  0  0  0
    1.6174    6.4210    2.6919 H   0  0  0  0  0  0  0  0  0  0  0  0
    1.3239    7.1228    4.3026 H   0  0  0  0  0  0  0  0  0  0  0  0
   -1.6491    5.8821    5.2681 H   0  0  0  0  0  0  0  0  0  0  0  0
   -1.0518    7.5705    4.7881 H   0  0  0  0  0  0  0  0  0  0  0  0
   -2.2880    6.7285    3.8697 H   0  0  0  0  0  0  0  0  0  0  0  0
    0.7341    6.0988    6.3956 H   0  0  0  0  0  0  0  0  0  0  0  0
    1.4533    4.6530    7.0847 H   0  0  0  0  0  0  0  0  0  0  0  0
   -0.2506    4.5674    6.6700 H   0  0  0  0  0  0  0  0  0  0  0  0
    4.5042    2.4037    3.8587 H   0  0  0  0  0  0  0  0  0  0  0  0
    4.9854    4.1118    3.6226 H   0  0  0  0  0  0  0  0  0  0  0  0
    5.0199    4.9951    1.2928 H   0  0  0  0  0  0  0  0  0  0  0  0
    4.9551    4.4624   -1.0726 H   0  0  0  0  0  0  0  0  0  0  0  0
    3.4802    0.5740   -0.1527 H   0  0  0  0  0  0  0  0  0  0  0  0
    3.5434    1.0998    2.1723 H   0  0  0  0  0  0  0  0  0  0  0  0
    3.7045    1.1260   -2.3957 H   0  0  0  0  0  0  0  0  0  0  0  0
    3.7489    2.9825   -5.2114 H   0  0  0  0  0  0  0  0  0  0  0  0
    6.1350    3.1023   -5.5454 H   0  0  0  0  0  0  0  0  0  0  0  0
    6.4097    1.4718   -4.8205 H   0  0  0  0  0  0  0  0  0  0  0  0
    4.9157    2.1118   -7.4455 H   0  0  0  0  0  0  0  0  0  0  0  0
    5.1087    0.4601   -6.7494 H   0  0  0  0  0  0  0  0  0  0  0  0
    6.7065    0.8725   -8.4414 H   0  0  0  0  0  0  0  0  0  0  0  0
    7.3520    2.3286   -7.6777 H   0  0  0  0  0  0  0  0  0  0  0  0
    7.4493    0.0464   -5.8286 H   0  0  0  0  0  0  0  0  0  0  0  0
    9.8186   -1.7419   -6.4606 H   0  0  0  0  0  0  0  0  0  0  0  0
   10.5474   -0.2667   -5.6577 H   0  0  0  0  0  0  0  0  0  0  0  0
    4.1162    0.0298   -4.4181 H   0  0  0  0  0  0  0  0  0  0  0  0
    0.8006    0.0380   -3.4889 H   0  0  0  0  0  0  0  0  0  0  0  0
   -0.4048    0.8635   -5.3850 H   0  0  0  0  0  0  0  0  0  0  0  0
   -0.1764   -2.1141   -5.7918 H   0  0  0  0  0  0  0  0  0  0  0  0
   -0.8815   -1.3652   -4.2709 H   0  0  0  0  0  0  0  0  0  0  0  0
   -1.6739   -1.0959   -5.8357 H   0  0  0  0  0  0  0  0  0  0  0  0
    1.6303   -0.6054   -7.0224 H   0  0  0  0  0  0  0  0  0  0  0  0
   -0.0738   -0.2428   -7.6396 H   0  0  0  0  0  0  0  0  0  0  0  0
    1.1081    1.0892   -7.1632 H   0  0  0  0  0  0  0  0  0  0  0  0
    2.4934   -1.7042   -5.2549 H   0  0  0  0  0  0  0  0  0  0  0  0
    2.1695   -4.0894   -4.1336 H   0  0  0  0  0  0  0  0  0  0  0  0
    3.7038   -3.3127   -3.6955 H   0  0  0  0  0  0  0  0  0  0  0  0
    2.9366   -3.7616   -1.1827 H   0  0  0  0  0  0  0  0  0  0  0  0
    1.5091   -4.5878   -1.8695 H   0  0  0  0  0  0  0  0  0  0  0  0
    3.2151   -6.2723   -1.3235 H   0  0  0  0  0  0  0  0  0  0  0  0
    2.8442   -6.2554   -3.0577 H   0  0  0  0  0  0  0  0  0  0  0  0
    5.2016   -4.8913   -1.6021 H   0  0  0  0  0  0  0  0  0  0  0  0
    4.9420   -4.7699   -3.3556 H   0  0  0  0  0  0  0  0  0  0  0  0
    5.5432   -7.3055   -1.6932 H   0  0  0  0  0  0  0  0  0  0  0  0
    6.5797   -6.3989   -2.8730 H   0  0  0  0  0  0  0  0  0  0  0  0
    3.1805   -9.6584   -5.5059 H   0  0  0  0  0  0  0  0  0  0  0  0
    4.8763   -8.3827   -6.9902 H   0  0  0  0  0  0  0  0  0  0  0  0
  1  2  1  0
  2  3  1  0
  3  4  1  0
  3  5  1  0
  5  6  1  0
  6  7  1  0
  7  8  1  0
  8  9  2  0
  8 10  1  0
 10 11  1  0
 11 12  1  0
 12 13  1  0
 13 14  1  0
 14 15  1  0
 15 16  1  0
 16 17  1  0
 16 18  1  0
 18 19  2  0
 18 20  1  0
 20 21  1  0
 21 22  1  0
 21 23  1  0
 23 24  1  0
 24 25  2  0
 25 26  1  0
 26 27  2  0
 27 28  1  0
 28 29  2  0
 23 30  1  0
 15 31  1  0
 31 32  1  0
  6 33  1  0
 33 34  1  0
  5 35  1  0
 35 36  1  0
 35 37  1  0
 37 38  2  0
 37 39  1  0
 39 40  1  0
 40 41  1  0
 40 42  1  0
 39 43  1  0
 43 44  1  0
 44 45  2  0
 44 46  1  0
 46 47  1  0
 47 48  1  0
 47 49  1  0
 46 50  1  0
 50 51  1  0
 50 52  1  0
 52 53  2  0
 52 54  1  0
 54 55  1  0
 55 56  1  0
 56 57  1  0
 57 58  2  0
 58 59  1  0
 59 60  2  0
 60 61  1  0
 59 62  1  0
 62 63  1  0
 63 64  2  0
 63 65  1  0
 65 66  1  0
 66 67  1  0
 67 68  1  0
 68 69  1  0
 69 70  1  0
 70 71  2  0
 70 72  1  0
 65 73  1  0
 73 74  1  0
 74 75  2  0
 74 76  1  0
 76 77  1  0
 77 78  1  0
 77 79  1  0
 76 80  1  0
 80 81  1  0
 81 82  2  0
 81 83  1  0
 83 84  1  0
 84 85  1  0
 85 86  1  0
 86 87  1  0
 87 88  1  0
 88 89  1  0
 89 90  2  0
 89 91  1  0
 91 92  2  0
 92 93  1  0
 93 94  2  0
 14 10  1  0
 29 24  1  0
 61 56  2  0
 93 88  1  0
  1 95  1  0
  1 96  1  0
  1 97  1  0
  2 98  1  0
  2 99  1  0
  3100  1  1
  4101  1  0
  4102  1  0
  4103  1  0
  5104  1  6
  6105  1  1
  7106  1  0
  7107  1  0
 11108  1  0
 11109  1  0
 12110  1  0
 12111  1  0
 13112  1  0
 13113  1  0
 14114  1  1
 15115  1  1
 16116  1  6
 17117  1  0
 17118  1  0
 17119  1  0
 20120  1  0
 21121  1  1
 22122  1  0
 22123  1  0
 22124  1  0
 23125  1  6
 25126  1  0
 26127  1  0
 27128  1  0
 28129  1  0
 29130  1  0
 30131  1  0
 32132  1  0
 32133  1  0
 32134  1  0
 34135  1  0
 34136  1  0
 34137  1  0
 36138  1  0
 36139  1  0
 36140  1  0
 39141  1  6
 40142  1  0
 41143  1  0
 41144  1  0
 41145  1  0
 42146  1  0
 42147  1  0
 42148  1  0
 43149  1  0
 46150  1  6
 47151  1  0
 48152  1  0
 48153  1  0
 48154  1  0
 49155  1  0
 49156  1  0
 49157  1  0
 51158  1  0
 51159  1  0
 51160  1  0
 55161  1  0
 55162  1  0
 57163  1  0
 58164  1  0
 60165  1  0
 61166  1  0
 62167  1  0
 65168  1  6
 66169  1  0
 66170  1  0
 67171  1  0
 67172  1  0
 68173  1  0
 68174  1  0
 69175  1  0
 72176  1  0
 72177  1  0
 73178  1  0
 76179  1  1
 77180  1  0
 78181  1  0
 78182  1  0
 78183  1  0
 79184  1  0
 79185  1  0
 79186  1  0
 80187  1  0
 83188  1  0
 83189  1  0
 84190  1  0
 84191  1  0
 85192  1  0
 85193  1  0
 86194  1  0
 86195  1  0
 87196  1  0
 87197  1  0
 91198  1  0
 92199  1  0
M  END
$$$$

     RDKit          3D

199202  0  0  0  0  0  0  0  0999 V2000
    4.5348   -4.0113    4.4742 C   0  0  0  0  0  0  0  0  0  0  0  0
    3.7714   -3.1800    3.4322 C   0  0  0  0  0  0  0  0  0  0  0  0
    2.3464   -3.6980    3.4238 C   0  0  2  0  0  0  0  0  0  0  0  0
    2.3990   -5.1439    3.0346 C   0  0  0  0  0  0  0  0  0  0  0  0
    1.3439   -2.8384    2.7617 C   0  0  1  0  0  0  0  0  0  0  0  0
    1.5579   -2.6228    1.3268 C   0  0  1  0  0  0  0  0  0  0  0  0
    0.4955   -1.7003    0.7115 C   0  0  0  0  0  0  0  0  0  0  0  0
    0.6818   -1.5110   -0.7474 C   0  0  0  0  0  0  0  0  0  0  0  0
    1.5506   -0.7125   -1.1726 O   0  0  0  0  0  0  0  0  0  0  0  0
   -0.1698   -2.2722   -1.6278 N   0  0  0  0  0  0  0  0  0  0  0  0
   -1.1989   -3.1973   -1.1117 C   0  0  0  0  0  0  0  0  0  0  0  0
   -1.9860   -3.6583   -2.3202 C   0  0  0  0  0  0  0  0  0  0  0  0
   -1.6331   -2.6847   -3.3883 C   0  0  0  0  0  0  0  0  0  0  0  0
   -0.1599   -2.3154   -3.0715 C   0  0  1  0  0  0  0  0  0  0  0  0
    0.0312   -0.9950   -3.7600 C   0  0  1  0  0  0  0  0  0  0  0  0
    0.1691   -1.2819   -5.2538 C   0  0  1  0  0  0  0  0  0  0  0  0
    0.3376    0.0266   -6.0220 C   0  0  0  0  0  0  0  0  0  0  0  0
    1.4831   -1.9892   -5.4414 C   0  0  0  0  0  0  0  0  0  0  0  0
    2.2975   -2.0994   -4.4649 O   0  0  0  0  0  0  0  0  0  0  0  0
    1.8932   -2.5585   -6.6575 N   0  0  0  0  0  0  0  0  0  0  0  0
    3.1812   -3.2106   -6.7201 C   0  0  2  0  0  0  0  0  0  0  0  0
    3.9145   -2.6094   -7.8942 C   0  0  0  0  0  0  0  0  0  0  0  0
    3.0470   -4.6974   -6.9234 C   0  0  1  0  0  0  0  0  0  0  0  0
    4.3884   -5.3405   -6.9531 C   0  0  0  0  0  0  0  0  0  0  0  0
    5.0883   -5.5907   -5.7739 C   0  0  0  0  0  0  0  0  0  0  0  0
    6.3456   -6.1898   -5.9024 C   0  0  0  0  0  0  0  0  0  0  0  0
    6.8829   -6.5245   -7.1290 C   0  0  0  0  0  0  0  0  0  0  0  0
    6.1427   -6.2527   -8.2597 C   0  0  0  0  0  0  0  0  0  0  0  0
    4.9085   -5.6678   -8.1984 C   0  0  0  0  0  0  0  0  0  0  0  0
    2.3227   -5.2980   -5.8894 O   0  0  0  0  0  0  0  0  0  0  0  0
   -1.0152   -0.1626   -3.4847 O   0  0  0  0  0  0  0  0  0  0  0  0
   -0.7083    1.0557   -2.9428 C   0  0  0  0  0  0  0  0  0  0  0  0
    2.7788   -2.1618    0.9540 O   0  0  0  0  0  0  0  0  0  0  0  0
    3.3842   -3.0064   -0.0040 C   0  0  0  0  0  0  0  0  0  0  0  0
   -0.0074   -3.3413    3.0211 N   0  0  0  0  0  0  0  0  0  0  0  0
   -0.4430   -4.5773    2.3304 C   0  0  0  0  0  0  0  0  0  0  0  0
   -0.9621   -2.7567    3.8663 C   0  0  0  0  0  0  0  0  0  0  0  0
   -2.1726   -3.3053    3.6706 O   0  0  0  0  0  0  0  0  0  0  0  0
   -0.9655   -1.7435    4.8656 C   0  0  1  0  0  0  0  0  0  0  0  0
   -2.2381   -1.9084    5.7360 C   0  0  0  0  0  0  0  0  0  0  0  0
   -2.2576   -0.8531    6.8197 C   0  0  0  0  0  0  0  0  0  0  0  0
   -3.4707   -1.7462    4.9299 C   0  0  0  0  0  0  0  0  0  0  0  0
    0.1465   -1.5450    5.7401 N   0  0  0  0  0  0  0  0  0  0  0  0
    0.6102   -0.3309    6.2670 C   0  0  0  0  0  0  0  0  0  0  0  0
    0.1463    0.8077    5.9999 O   0  0  0  0  0  0  0  0  0  0  0  0
    1.7908   -0.3450    7.3090 C   0  0  1  0  0  0  0  0  0  0  0  0
    2.9901   -0.4914    6.5185 C   0  0  0  0  0  0  0  0  0  0  0  0
    3.2146    0.5980    5.4868 C   0  0  0  0  0  0  0  0  0  0  0  0
    4.2603   -0.7122    7.3372 C   0  0  0  0  0  0  0  0  0  0  0  0
    1.5270    0.7262    8.1927 N   0  0  0  0  0  0  0  0  0  0  0  0
    0.7344    0.3454    9.4207 C   0  0  0  0  0  0  0  0  0  0  0  0
    1.8860    2.0742    8.1550 C   0  0  0  0  0  0  0  0  0  0  0  0
    1.1381    2.8914    8.8314 O   0  0  0  0  0  0  0  0  0  0  0  0
    2.9345    2.6652    7.5104 O   0  0  0  0  0  0  0  0  0  0  0  0
    3.1291    4.1163    7.4670 C   0  0  0  0  0  0  0  0  0  0  0  0
    2.0940    4.4919    6.4264 C   0  0  0  0  0  0  0  0  0  0  0  0
    0.8399    4.9138    6.5867 C   0  0  0  0  0  0  0  0  0  0  0  0
    0.0458    5.0532    5.4273 C   0  0  0  0  0  0  0  0  0  0  0  0
    0.5030    4.7823    4.1815 C   0  0  0  0  0  0  0  0  0  0  0  0
    1.8266    4.3453    4.0067 C   0  0  0  0  0  0  0  0  0  0  0  0
    2.5782    4.2141    5.1289 C   0  0  0  0  0  0  0  0  0  0  0  0
   -0.2515    4.7221    2.9691 N   0  0  0  0  0  0  0  0  0  0  0  0
    0.3107    5.0648    1.7083 C   0  0  0  0  0  0  0  0  0  0  0  0
    1.4998    5.5344    1.6108 O   0  0  0  0  0  0  0  0  0  0  0  0
   -0.3861    4.8998    0.4092 C   0  0  1  0  0  0  0  0  0  0  0  0
    0.2908    3.5867   -0.2275 C   0  0  0  0  0  0  0  0  0  0  0  0
    1.7588    3.8165   -0.3750 C   0  0  0  0  0  0  0  0  0  0  0  0
    2.3925    2.5894   -1.0681 C   0  0  0  0  0  0  0  0  0  0  0  0
    3.8060    2.8140   -1.1786 N   0  0  0  0  0  0  0  0  0  0  0  0
    4.5991    1.7997   -1.8048 C   0  0  0  0  0  0  0  0  0  0  0  0
    4.0350    0.7682   -2.2263 O   0  0  0  0  0  0  0  0  0  0  0  0
    6.0038    1.9815   -1.9380 N   0  0  0  0  0  0  0  0  0  0  0  0
   -1.7787    4.5885    0.5131 N   0  0  0  0  0  0  0  0  0  0  0  0
   -2.6247    4.1452   -0.5333 C   0  0  0  0  0  0  0  0  0  0  0  0
   -2.1078    3.9926   -1.6894 O   0  0  0  0  0  0  0  0  0  0  0  0
   -4.0399    3.8300   -0.4062 C   0  0  1  0  0  0  0  0  0  0  0  0
   -4.7971    4.8740   -1.2789 C   0  0  0  0  0  0  0  0  0  0  0  0
   -4.3128    4.7181   -2.6912 C   0  0  0  0  0  0  0  0  0  0  0  0
   -4.3802    6.2695   -0.8315 C   0  0  0  0  0  0  0  0  0  0  0  0
   -4.2367    2.5107   -0.9367 N   0  0  0  0  0  0  0  0  0  0  0  0
   -5.4507    1.7793   -0.9711 C   0  0  0  0  0  0  0  0  0  0  0  0
   -6.5202    2.3171   -0.5669 O   0  0  0  0  0  0  0  0  0  0  0  0
   -5.3668    0.3961   -1.4848 C   0  0  0  0  0  0  0  0  0  0  0  0
   -6.6645   -0.1650   -2.0591 C   0  0  0  0  0  0  0  0  0  0  0  0
   -6.3551   -1.6024   -2.3232 C   0  0  0  0  0  0  0  0  0  0  0  0
   -7.2763   -2.4899   -2.9888 C   0  0  0  0  0  0  0  0  0  0  0  0
   -8.6110   -2.7694   -2.4793 C   0  0  0  0  0  0  0  0  0  0  0  0
   -9.5340   -1.6853   -2.4422 N   0  0  0  0  0  0  0  0  0  0  0  0
  -10.2811   -1.2968   -3.6181 C   0  0  0  0  0  0  0  0  0  0  0  0
  -10.1949   -1.7646   -4.7822 O   0  0  0  0  0  0  0  0  0  0  0  0
  -11.2158   -0.2242   -3.2824 C   0  0  0  0  0  0  0  0  0  0  0  0
  -11.0677    0.0392   -2.0032 C   0  0  0  0  0  0  0  0  0  0  0  0
  -10.0338   -0.8403   -1.4281 C   0  0  0  0  0  0  0  0  0  0  0  0
   -9.6918   -0.8079   -0.2312 O   0  0  0  0  0  0  0  0  0  0  0  0
    5.1280   -3.3481    5.1492 H   0  0  0  0  0  0  0  0  0  0  0  0
    5.1304   -4.7656    3.9656 H   0  0  0  0  0  0  0  0  0  0  0  0
    3.7786   -4.5266    5.0989 H   0  0  0  0  0  0  0  0  0  0  0  0
    4.3323   -3.3571    2.5006 H   0  0  0  0  0  0  0  0  0  0  0  0
    3.8335   -2.1340    3.7784 H   0  0  0  0  0  0  0  0  0  0  0  0
    2.0715   -3.6325    4.5451 H   0  0  0  0  0  0  0  0  0  0  0  0
    1.8711   -5.7529    3.8161 H   0  0  0  0  0  0  0  0  0  0  0  0
    3.4940   -5.4768    3.0202 H   0  0  0  0  0  0  0  0  0  0  0  0
    2.0261   -5.4201    2.0647 H   0  0  0  0  0  0  0  0  0  0  0  0
    1.3745   -1.8378    3.3096 H   0  0  0  0  0  0  0  0  0  0  0  0
    1.4363   -3.5952    0.7485 H   0  0  0  0  0  0  0  0  0  0  0  0
   -0.5261   -1.9679    0.9477 H   0  0  0  0  0  0  0  0  0  0  0  0
    0.6375   -0.6504    1.1260 H   0  0  0  0  0  0  0  0  0  0  0  0
   -0.6896   -4.1320   -0.7428 H   0  0  0  0  0  0  0  0  0  0  0  0
   -1.8840   -2.7458   -0.3983 H   0  0  0  0  0  0  0  0  0  0  0  0
   -1.7268   -4.6604   -2.6725 H   0  0  0  0  0  0  0  0  0  0  0  0
   -3.0910   -3.6873   -2.1084 H   0  0  0  0  0  0  0  0  0  0  0  0
   -1.7459   -3.0669   -4.4033 H   0  0  0  0  0  0  0  0  0  0  0  0
   -2.1899   -1.7375   -3.2129 H   0  0  0  0  0  0  0  0  0  0  0  0
    0.5000   -3.1273   -3.4337 H   0  0  0  0  0  0  0  0  0  0  0  0
    1.0004   -0.4914   -3.4404 H   0  0  0  0  0  0  0  0  0  0  0  0
   -0.6215   -1.9270   -5.6035 H   0  0  0  0  0  0  0  0  0  0  0  0
   -0.6083    0.6018   -5.8524 H   0  0  0  0  0  0  0  0  0  0  0  0
    1.2297    0.5967   -5.7172 H   0  0  0  0  0  0  0  0  0  0  0  0
    0.4038   -0.1473   -7.1136 H   0  0  0  0  0  0  0  0  0  0  0  0
    1.2758   -2.4969   -7.4897 H   0  0  0  0  0  0  0  0  0  0  0  0
    3.7757   -3.0954   -5.7870 H   0  0  0  0  0  0  0  0  0  0  0  0
    4.1535   -1.5649   -7.6279 H   0  0  0  0  0  0  0  0  0  0  0  0
    3.2896   -2.5600   -8.8175 H   0  0  0  0  0  0  0  0  0  0  0  0
    4.8207   -3.2066   -8.0764 H   0  0  0  0  0  0  0  0  0  0  0  0
    2.5328   -4.9369   -7.8653 H   0  0  0  0  0  0  0  0  0  0  0  0
    4.6878   -5.3313   -4.8159 H   0  0  0  0  0  0  0  0  0  0  0  0
    6.8497   -6.3787   -4.9766 H   0  0  0  0  0  0  0  0  0  0  0  0
    7.8594   -6.9937   -7.1425 H   0  0  0  0  0  0  0  0  0  0  0  0
    6.5998   -6.5338   -9.2166 H   0  0  0  0  0  0  0  0  0  0  0  0
    4.3180   -5.4453   -9.0820 H   0  0  0  0  0  0  0  0  0  0  0  0
    2.4972   -6.2914   -5.9847 H   0  0  0  0  0  0  0  0  0  0  0  0
   -0.0236    1.6604   -3.5741 H   0  0  0  0  0  0  0  0  0  0  0  0
   -0.3876    1.0548   -1.9179 H   0  0  0  0  0  0  0  0  0  0  0  0
   -1.6749    1.6465   -2.9683 H   0  0  0  0  0  0  0  0  0  0  0  0
    2.7679   -3.0944   -0.9326 H   0  0  0  0  0  0  0  0  0  0  0  0
    3.3746   -4.0218    0.4291 H   0  0  0  0  0  0  0  0  0  0  0  0
    4.4299   -2.7560   -0.2130 H   0  0  0  0  0  0  0  0  0  0  0  0
   -0.2763   -5.4852    2.9358 H   0  0  0  0  0  0  0  0  0  0  0  0
   -1.5905   -4.5303    2.2669 H   0  0  0  0  0  0  0  0  0  0  0  0
   -0.0080   -4.7312    1.3656 H   0  0  0  0  0  0  0  0  0  0  0  0
   -1.1619   -0.7279    4.3962 H   0  0  0  0  0  0  0  0  0  0  0  0
   -2.1807   -2.9122    6.1710 H   0  0  0  0  0  0  0  0  0  0  0  0
   -2.4401    0.1498    6.4370 H   0  0  0  0  0  0  0  0  0  0  0  0
   -3.1805   -1.0897    7.4414 H   0  0  0  0  0  0  0  0  0  0  0  0
   -1.4017   -1.0128    7.4714 H   0  0  0  0  0  0  0  0  0  0  0  0
   -3.3662   -1.1658    3.9913 H   0  0  0  0  0  0  0  0  0  0  0  0
   -4.2460   -1.1380    5.5184 H   0  0  0  0  0  0  0  0  0  0  0  0
   -4.0494   -2.7143    4.7827 H   0  0  0  0  0  0  0  0  0  0  0  0
    0.6788   -2.4218    6.0199 H   0  0  0  0  0  0  0  0  0  0  0  0
    1.5149   -1.3147    7.8389 H   0  0  0  0  0  0  0  0  0  0  0  0
    2.9241   -1.4502    5.8967 H   0  0  0  0  0  0  0  0  0  0  0  0
    4.1715    1.1132    5.6500 H   0  0  0  0  0  0  0  0  0  0  0  0
    2.3248    1.2103    5.4159 H   0  0  0  0  0  0  0  0  0  0  0  0
    3.3289    0.1475    4.4503 H   0  0  0  0  0  0  0  0  0  0  0  0
    4.1687   -0.3058    8.3774 H   0  0  0  0  0  0  0  0  0  0  0  0
    5.1632   -0.3452    6.8048 H   0  0  0  0  0  0  0  0  0  0  0  0
    4.4771   -1.8085    7.4927 H   0  0  0  0  0  0  0  0  0  0  0  0
    1.3407    0.6741   10.3158 H   0  0  0  0  0  0  0  0  0  0  0  0
   -0.1796    0.9563    9.4647 H   0  0  0  0  0  0  0  0  0  0  0  0
    0.6129   -0.7271    9.5106 H   0  0  0  0  0  0  0  0  0  0  0  0
    4.1125    4.3421    7.0721 H   0  0  0  0  0  0  0  0  0  0  0  0
    2.8740    4.5755    8.4309 H   0  0  0  0  0  0  0  0  0  0  0  0
    0.4713    5.1435    7.5655 H   0  0  0  0  0  0  0  0  0  0  0  0
   -0.9724    5.3881    5.5360 H   0  0  0  0  0  0  0  0  0  0  0  0
    2.2584    4.1059    3.0637 H   0  0  0  0  0  0  0  0  0  0  0  0
    3.6156    3.8723    4.9880 H   0  0  0  0  0  0  0  0  0  0  0  0
   -1.2363    4.4065    3.0749 H   0  0  0  0  0  0  0  0  0  0  0  0
   -0.1192    5.6182   -0.3455 H   0  0  0  0  0  0  0  0  0  0  0  0
   -0.2110    3.3001   -1.1289 H   0  0  0  0  0  0  0  0  0  0  0  0
    0.1256    2.8260    0.5625 H   0  0  0  0  0  0  0  0  0  0  0  0
    2.0659    4.7621   -0.8065 H   0  0  0  0  0  0  0  0  0  0  0  0
    2.2003    3.7436    0.6702 H   0  0  0  0  0  0  0  0  0  0  0  0
    1.8886    2.3825   -2.0227 H   0  0  0  0  0  0  0  0  0  0  0  0
    2.2468    1.7569   -0.3326 H   0  0  0  0  0  0  0  0  0  0  0  0
    4.3111    3.6554   -0.8419 H   0  0  0  0  0  0  0  0  0  0  0  0
    6.5750    1.2145   -2.3978 H   0  0  0  0  0  0  0  0  0  0  0  0
    6.4352    2.8665   -1.5825 H   0  0  0  0  0  0  0  0  0  0  0  0
   -2.2620    4.6918    1.4561 H   0  0  0  0  0  0  0  0  0  0  0  0
   -4.4635    3.9521    0.6004 H   0  0  0  0  0  0  0  0  0  0  0  0
   -5.8692    4.6991   -1.1670 H   0  0  0  0  0  0  0  0  0  0  0  0
   -3.4199    5.3337   -2.9189 H   0  0  0  0  0  0  0  0  0  0  0  0
   -4.1757    3.6234   -2.8566 H   0  0  0  0  0  0  0  0  0  0  0  0
   -5.1551    4.9838   -3.3972 H   0  0  0  0  0  0  0  0  0  0  0  0
   -4.9071    6.9813   -1.5177 H   0  0  0  0  0  0  0  0  0  0  0  0
   -4.6089    6.4747    0.2275 H   0  0  0  0  0  0  0  0  0  0  0  0
   -3.2850    6.4023   -1.0483 H   0  0  0  0  0  0  0  0  0  0  0  0
   -3.3972    2.0047   -1.3575 H   0  0  0  0  0  0  0  0  0  0  0  0
   -5.1405   -0.2752   -0.6017 H   0  0  0  0  0  0  0  0  0  0  0  0
   -4.5881    0.2665   -2.2636 H   0  0  0  0  0  0  0  0  0  0  0  0
   -6.8648    0.3446   -3.0450 H   0  0  0  0  0  0  0  0  0  0  0  0
   -7.4470    0.0396   -1.3576 H   0  0  0  0  0  0  0  0  0  0  0  0
   -6.0061   -2.0405   -1.3011 H   0  0  0  0  0  0  0  0  0  0  0  0
   -5.3406   -1.6443   -2.8875 H   0  0  0  0  0  0  0  0  0  0  0  0
   -7.3037   -2.2078   -4.1158 H   0  0  0  0  0  0  0  0  0  0  0  0
   -6.7812   -3.5497   -3.0777 H   0  0  0  0  0  0  0  0  0  0  0  0
   -8.5662   -3.1985   -1.4129 H   0  0  0  0  0  0  0  0  0  0  0  0
   -9.0821   -3.6625   -3.0232 H   0  0  0  0  0  0  0  0  0  0  0  0
  -11.9292    0.3016   -3.9117 H   0  0  0  0  0  0  0  0  0  0  0  0
  -11.6150    0.7911   -1.4354 H   0  0  0  0  0  0  0  0  0  0  0  0
  1  2  1  0
  2  3  1  0
  3  4  1  0
  3  5  1  0
  5  6  1  0
  6  7  1  0
  7  8  1  0
  8  9  2  0
  8 10  1  0
 10 11  1  0
 11 12  1  0
 12 13  1  0
 13 14  1  0
 14 15  1  0
 15 16  1  0
 16 17  1  0
 16 18  1  0
 18 19  2  0
 18 20  1  0
 20 21  1  0
 21 22  1  0
 21 23  1  0
 23 24  1  0
 24 25  2  0
 25 26  1  0
 26 27  2  0
 27 28  1  0
 28 29  2  0
 23 30  1  0
 15 31  1  0
 31 32  1  0
  6 33  1  0
 33 34  1  0
  5 35  1  0
 35 36  1  0
 35 37  1  0
 37 38  2  0
 37 39  1  0
 39 40  1  0
 40 41  1  0
 40 42  1  0
 39 43  1  0
 43 44  1  0
 44 45  2  0
 44 46  1  0
 46 47  1  0
 47 48  1  0
 47 49  1  0
 46 50  1  0
 50 51  1  0
 50 52  1  0
 52 53  2  0
 52 54  1  0
 54 55  1  0
 55 56  1  0
 56 57  1  0
 57 58  2  0
 58 59  1  0
 59 60  2  0
 60 61  1  0
 59 62  1  0
 62 63  1  0
 63 64  2  0
 63 65  1  0
 65 66  1  0
 66 67  1  0
 67 68  1  0
 68 69  1  0
 69 70  1  0
 70 71  2  0
 70 72  1  0
 65 73  1  0
 73 74  1  0
 74 75  2  0
 74 76  1  0
 76 77  1  0
 77 78  1  0
 77 79  1  0
 76 80  1  0
 80 81  1  0
 81 82  2  0
 81 83  1  0
 83 84  1  0
 84 85  1  0
 85 86  1  0
 86 87  1  0
 87 88  1  0
 88 89  1  0
 89 90  2  0
 89 91  1  0
 91 92  2  0
 92 93  1  0
 93 94  2  0
 14 10  1  0
 29 24  1  0
 61 56  2  0
 93 88  1  0
  1 95  1  0
  1 96  1  0
  1 97  1  0
  2 98  1  0
  2 99  1  0
  3100  1  1
  4101  1  0
  4102  1  0
  4103  1  0
  5104  1  1
  6105  1  6
  7106  1  0
  7107  1  0
 11108  1  0
 11109  1  0
 12110  1  0
 12111  1  0
 13112  1  0
 13113  1  0
 14114  1  1
 15115  1  1
 16116  1  6
 17117  1  0
 17118  1  0
 17119  1  0
 20120  1  0
 21121  1  1
 22122  1  0
 22123  1  0
 22124  1  0
 23125  1  6
 25126  1  0
 26127  1  0
 27128  1  0
 28129  1  0
 29130  1  0
 30131  1  0
 32132  1  0
 32133  1  0
 32134  1  0
 34135  1  0
 34136  1  0
 34137  1  0
 36138  1  0
 36139  1  0
 36140  1  0
 39141  1  6
 40142  1  0
 41143  1  0
 41144  1  0
 41145  1  0
 42146  1  0
 42147  1  0
 42148  1  0
 43149  1  0
 46150  1  1
 47151  1  0
 48152  1  0
 48153  1  0
 48154  1  0
 49155  1  0
 49156  1  0
 49157  1  0
 51158  1  0
 51159  1  0
 51160  1  0
 55161  1  0
 55162  1  0
 57163  1  0
 58164  1  0
 60165  1  0
 61166  1  0
 62167  1  0
 65168  1  6
 66169  1  0
 66170  1  0
 67171  1  0
 67172  1  0
 68173  1  0
 68174  1  0
 69175  1  0
 72176  1  0
 72177  1  0
 73178  1  0
 76179  1  1
 77180  1  0
 78181  1  0
 78182  1  0
 78183  1  0
 79184  1  0
 79185  1  0
 79186  1  0
 80187  1  0
 83188  1  0
 83189  1  0
 84190  1  0
 84191  1  0
 85192  1  0
 85193  1  0
 86194  1  0
 86195  1  0
 87196  1  0
 87197  1  0
 91198  1  0
 92199  1  0
M  END
$$$$

     RDKit          3D

199202  0  0  0  0  0  0  0  0999 V2000
   -1.0197   -1.5929    2.0650 C   0  0  0  0  0  0  0  0  0  0  0  0
   -0.7728   -0.1820    1.6048 C   0  0  0  0  0  0  0  0  0  0  0  0
   -2.1127    0.3257    1.0275 C   0  0  2  0  0  0  0  0  0  0  0  0
   -2.4862   -0.5250   -0.0812 C   0  0  0  0  0  0  0  0  0  0  0  0
   -2.0317    1.8205    0.9449 C   0  0  1  0  0  0  0  0  0  0  0  0
   -0.9497    2.4072    0.0718 C   0  0  1  0  0  0  0  0  0  0  0  0
   -1.0127    2.0698   -1.3338 C   0  0  0  0  0  0  0  0  0  0  0  0
   -0.1218    2.4954   -2.3872 C   0  0  0  0  0  0  0  0  0  0  0  0
   -0.3034    1.7998   -3.5068 O   0  0  0  0  0  0  0  0  0  0  0  0
    0.8811    3.4618   -2.5098 N   0  0  0  0  0  0  0  0  0  0  0  0
    1.4362    4.4629   -1.6441 C   0  0  0  0  0  0  0  0  0  0  0  0
    2.2083    5.4324   -2.4814 C   0  0  0  0  0  0  0  0  0  0  0  0
    1.9246    5.0312   -3.9004 C   0  0  0  0  0  0  0  0  0  0  0  0
    1.6378    3.5792   -3.8007 C   0  0  1  0  0  0  0  0  0  0  0  0
    2.9143    2.7794   -3.7441 C   0  0  1  0  0  0  0  0  0  0  0  0
    3.6017    2.9225   -5.0577 C   0  0  1  0  0  0  0  0  0  0  0  0
    4.9164    2.1096   -5.0334 C   0  0  0  0  0  0  0  0  0  0  0  0
    2.8144    2.2292   -6.1571 C   0  0  0  0  0  0  0  0  0  0  0  0
    2.0202    1.3685   -5.7924 O   0  0  0  0  0  0  0  0  0  0  0  0
    3.0849    2.6586   -7.4698 N   0  0  0  0  0  0  0  0  0  0  0  0
    2.5303    2.1826   -8.6924 C   0  0  2  0  0  0  0  0  0  0  0  0
    2.4725    3.2626   -9.7077 C   0  0  0  0  0  0  0  0  0  0  0  0
    1.2112    1.4366   -8.5357 C   0  0  1  0  0  0  0  0  0  0  0  0
    1.3046    0.0421   -8.1431 C   0  0  0  0  0  0  0  0  0  0  0  0
    2.4258   -0.7266   -8.0007 C   0  0  0  0  0  0  0  0  0  0  0  0
    2.3930   -2.0755   -7.6222 C   0  0  0  0  0  0  0  0  0  0  0  0
    1.1939   -2.6719   -7.3797 C   0  0  0  0  0  0  0  0  0  0  0  0
    0.0539   -1.9430   -7.5103 C   0  0  0  0  0  0  0  0  0  0  0  0
    0.0888   -0.6205   -7.8812 C   0  0  0  0  0  0  0  0  0  0  0  0
    0.2412    2.1807   -7.8803 O   0  0  0  0  0  0  0  0  0  0  0  0
    3.7568    3.2324   -2.7334 O   0  0  0  0  0  0  0  0  0  0  0  0
    4.0777    2.2288   -1.8196 C   0  0  0  0  0  0  0  0  0  0  0  0
   -0.7533    3.6727    0.5210 O   0  0  0  0  0  0  0  0  0  0  0  0
    0.2375    3.8467    1.4547 C   0  0  0  0  0  0  0  0  0  0  0  0
   -3.3204    2.4028    1.0190 N   0  0  0  0  0  0  0  0  0  0  0  0
   -4.2086    2.5794   -0.1377 C   0  0  0  0  0  0  0  0  0  0  0  0
   -3.8759    2.9349    2.2591 C   0  0  0  0  0  0  0  0  0  0  0  0
   -5.1156    3.3145    2.2518 O   0  0  0  0  0  0  0  0  0  0  0  0
   -3.1831    3.0793    3.5149 C   0  0  1  0  0  0  0  0  0  0  0  0
   -3.1212    4.5656    3.9704 C   0  0  0  0  0  0  0  0  0  0  0  0
   -2.4117    5.4200    2.9557 C   0  0  0  0  0  0  0  0  0  0  0  0
   -4.4432    5.1006    4.3845 C   0  0  0  0  0  0  0  0  0  0  0  0
   -4.0623    2.5087    4.5730 N   0  0  0  0  0  0  0  0  0  0  0  0
   -3.3434    2.1134    5.7493 C   0  0  0  0  0  0  0  0  0  0  0  0
   -2.1106    2.3436    5.7299 O   0  0  0  0  0  0  0  0  0  0  0  0
   -3.9791    1.4773    6.9111 C   0  0  1  0  0  0  0  0  0  0  0  0
   -4.0271   -0.0565    6.7039 C   0  0  0  0  0  0  0  0  0  0  0  0
   -4.6670   -0.7326    7.8730 C   0  0  0  0  0  0  0  0  0  0  0  0
   -4.7715   -0.3894    5.4331 C   0  0  0  0  0  0  0  0  0  0  0  0
   -3.1845    1.6899    8.0931 N   0  0  0  0  0  0  0  0  0  0  0  0
   -3.9392    2.2708    9.2362 C   0  0  0  0  0  0  0  0  0  0  0  0
   -1.8431    1.4348    8.3092 C   0  0  0  0  0  0  0  0  0  0  0  0
   -1.3388    1.6936    9.4716 O   0  0  0  0  0  0  0  0  0  0  0  0
   -0.9093    0.9225    7.4107 O   0  0  0  0  0  0  0  0  0  0  0  0
    0.4486    0.7869    7.8686 C   0  0  0  0  0  0  0  0  0  0  0  0
    1.3255    0.2966    6.7976 C   0  0  0  0  0  0  0  0  0  0  0  0
    1.7469    1.2286    5.8568 C   0  0  0  0  0  0  0  0  0  0  0  0
    2.5928    0.9588    4.8324 C   0  0  0  0  0  0  0  0  0  0  0  0
    3.0888   -0.3469    4.6954 C   0  0  0  0  0  0  0  0  0  0  0  0
    2.6903   -1.2767    5.6031 C   0  0  0  0  0  0  0  0  0  0  0  0
    1.8133   -0.9754    6.6555 C   0  0  0  0  0  0  0  0  0  0  0  0
    3.9535   -0.5540    3.5902 N   0  0  0  0  0  0  0  0  0  0  0  0
    3.3322   -1.1646    2.4325 C   0  0  0  0  0  0  0  0  0  0  0  0
    2.1321   -1.4428    2.5681 O   0  0  0  0  0  0  0  0  0  0  0  0
    4.1921   -1.3733    1.2614 C   0  0  1  0  0  0  0  0  0  0  0  0
    5.6471   -1.3932    1.4924 C   0  0  0  0  0  0  0  0  0  0  0  0
    6.2160   -2.4162    2.3995 C   0  0  0  0  0  0  0  0  0  0  0  0
    7.7344   -2.1620    2.4368 C   0  0  0  0  0  0  0  0  0  0  0  0
    8.4346   -3.0754    3.2775 N   0  0  0  0  0  0  0  0  0  0  0  0
    8.4572   -4.4632    3.1023 C   0  0  0  0  0  0  0  0  0  0  0  0
    7.8333   -5.0301    2.1493 O   0  0  0  0  0  0  0  0  0  0  0  0
    9.2068   -5.2854    4.0241 N   0  0  0  0  0  0  0  0  0  0  0  0
    3.6951   -2.1955    0.2011 N   0  0  0  0  0  0  0  0  0  0  0  0
    2.6767   -3.1384    0.1969 C   0  0  0  0  0  0  0  0  0  0  0  0
    2.0089   -3.4383    1.2484 O   0  0  0  0  0  0  0  0  0  0  0  0
    2.2116   -3.9249   -1.0016 C   0  0  1  0  0  0  0  0  0  0  0  0
    3.2369   -4.7075   -1.7118 C   0  0  0  0  0  0  0  0  0  0  0  0
    3.9264   -5.7401   -0.8402 C   0  0  0  0  0  0  0  0  0  0  0  0
    4.2455   -3.9495   -2.5229 C   0  0  0  0  0  0  0  0  0  0  0  0
    1.1389   -4.8323   -0.5579 N   0  0  0  0  0  0  0  0  0  0  0  0
   -0.2446   -4.5497   -0.8036 C   0  0  0  0  0  0  0  0  0  0  0  0
   -0.5377   -3.4990   -1.4192 O   0  0  0  0  0  0  0  0  0  0  0  0
   -1.2063   -5.5393   -0.2954 C   0  0  0  0  0  0  0  0  0  0  0  0
   -2.6157   -5.1067   -0.4299 C   0  0  0  0  0  0  0  0  0  0  0  0
   -3.1195   -4.8512   -1.8116 C   0  0  0  0  0  0  0  0  0  0  0  0
   -4.5798   -4.4232   -1.7965 C   0  0  0  0  0  0  0  0  0  0  0  0
   -5.1349   -4.1577   -3.1777 C   0  0  0  0  0  0  0  0  0  0  0  0
   -6.5463   -3.7507   -3.0780 N   0  0  0  0  0  0  0  0  0  0  0  0
   -7.6259   -4.6899   -3.1003 C   0  0  0  0  0  0  0  0  0  0  0  0
   -7.5139   -5.9466   -3.2120 O   0  0  0  0  0  0  0  0  0  0  0  0
   -8.8300   -3.8801   -2.9692 C   0  0  0  0  0  0  0  0  0  0  0  0
   -8.5414   -2.5995   -2.8756 C   0  0  0  0  0  0  0  0  0  0  0  0
   -7.0739   -2.4389   -2.9390 C   0  0  0  0  0  0  0  0  0  0  0  0
   -6.4197   -1.3602   -2.8810 O   0  0  0  0  0  0  0  0  0  0  0  0
   -0.4436   -2.2785    1.4513 H   0  0  0  0  0  0  0  0  0  0  0  0
   -0.8045   -1.6941    3.1501 H   0  0  0  0  0  0  0  0  0  0  0  0
   -2.1009   -1.8747    1.9699 H   0  0  0  0  0  0  0  0  0  0  0  0
   -0.0758   -0.1694    0.7565 H   0  0  0  0  0  0  0  0  0  0  0  0
   -0.3853    0.4850    2.3751 H   0  0  0  0  0  0  0  0  0  0  0  0
   -2.9046    0.1493    1.8410 H   0  0  0  0  0  0  0  0  0  0  0  0
   -3.0510   -0.1493   -0.9267 H   0  0  0  0  0  0  0  0  0  0  0  0
   -3.1732   -1.3540    0.3224 H   0  0  0  0  0  0  0  0  0  0  0  0
   -1.6018   -1.1433   -0.3922 H   0  0  0  0  0  0  0  0  0  0  0  0
   -1.6364    2.0151    2.0143 H   0  0  0  0  0  0  0  0  0  0  0  0
   -0.0325    1.8420    0.5105 H   0  0  0  0  0  0  0  0  0  0  0  0
   -2.0686    2.2441   -1.7800 H   0  0  0  0  0  0  0  0  0  0  0  0
   -1.0326    0.8890   -1.4404 H   0  0  0  0  0  0  0  0  0  0  0  0
    0.6436    5.0911   -1.1446 H   0  0  0  0  0  0  0  0  0  0  0  0
    2.0641    4.0270   -0.8340 H   0  0  0  0  0  0  0  0  0  0  0  0
    1.8618    6.4622   -2.3557 H   0  0  0  0  0  0  0  0  0  0  0  0
    3.2945    5.4486   -2.2341 H   0  0  0  0  0  0  0  0  0  0  0  0
    1.0507    5.5955   -4.3344 H   0  0  0  0  0  0  0  0  0  0  0  0
    2.7814    5.3309   -4.5095 H   0  0  0  0  0  0  0  0  0  0  0  0
    1.0254    3.1971   -4.6268 H   0  0  0  0  0  0  0  0  0  0  0  0
    2.6892    1.6898   -3.5846 H   0  0  0  0  0  0  0  0  0  0  0  0
    3.8441    3.9330   -5.3247 H   0  0  0  0  0  0  0  0  0  0  0  0
    5.4704    2.3764   -5.9521 H   0  0  0  0  0  0  0  0  0  0  0  0
    5.5406    2.3708   -4.1815 H   0  0  0  0  0  0  0  0  0  0  0  0
    4.6812    1.0217   -5.1059 H   0  0  0  0  0  0  0  0  0  0  0  0
    3.7998    3.4534   -7.5711 H   0  0  0  0  0  0  0  0  0  0  0  0
    3.1992    1.3474   -9.0804 H   0  0  0  0  0  0  0  0  0  0  0  0
    3.4936    3.6751   -9.8649 H   0  0  0  0  0  0  0  0  0  0  0  0
    2.1550    2.8082  -10.6645 H   0  0  0  0  0  0  0  0  0  0  0  0
    1.8138    4.1119   -9.4178 H   0  0  0  0  0  0  0  0  0  0  0  0
    0.7819    1.3913   -9.6178 H   0  0  0  0  0  0  0  0  0  0  0  0
    3.3976   -0.3209   -8.1669 H   0  0  0  0  0  0  0  0  0  0  0  0
    3.3200   -2.6294   -7.5263 H   0  0  0  0  0  0  0  0  0  0  0  0
    1.2082   -3.7305   -7.0834 H   0  0  0  0  0  0  0  0  0  0  0  0
   -0.8966   -2.4125   -7.3167 H   0  0  0  0  0  0  0  0  0  0  0  0
   -0.8624   -0.1118   -7.9664 H   0  0  0  0  0  0  0  0  0  0  0  0
    0.0364    2.9766   -8.4651 H   0  0  0  0  0  0  0  0  0  0  0  0
    4.7343    2.6762   -1.0626 H   0  0  0  0  0  0  0  0  0  0  0  0
    4.5743    1.3525   -2.2595 H   0  0  0  0  0  0  0  0  0  0  0  0
    3.1865    1.8371   -1.2841 H   0  0  0  0  0  0  0  0  0  0  0  0
    0.0168    3.3084    2.4138 H   0  0  0  0  0  0  0  0  0  0  0  0
    0.2890    4.9111    1.7003 H   0  0  0  0  0  0  0  0  0  0  0  0
    1.2427    3.5061    1.1955 H   0  0  0  0  0  0  0  0  0  0  0  0
   -4.2380    1.7810   -0.8495 H   0  0  0  0  0  0  0  0  0  0  0  0
   -3.9142    3.5072   -0.7024 H   0  0  0  0  0  0  0  0  0  0  0  0
   -5.2491    2.7665    0.1759 H   0  0  0  0  0  0  0  0  0  0  0  0
   -2.1582    2.7558    3.6425 H   0  0  0  0  0  0  0  0  0  0  0  0
   -2.4828    4.5666    4.8893 H   0  0  0  0  0  0  0  0  0  0  0  0
   -2.8406    6.4723    2.9605 H   0  0  0  0  0  0  0  0  0  0  0  0
   -1.3645    5.5632    3.2463 H   0  0  0  0  0  0  0  0  0  0  0  0
   -2.5795    5.0860    1.9112 H   0  0  0  0  0  0  0  0  0  0  0  0
   -4.4693    5.4308    5.4680 H   0  0  0  0  0  0  0  0  0  0  0  0
   -5.3110    4.4512    4.2612 H   0  0  0  0  0  0  0  0  0  0  0  0
   -4.5923    6.0782    3.8348 H   0  0  0  0  0  0  0  0  0  0  0  0
   -5.0790    2.4203    4.4583 H   0  0  0  0  0  0  0  0  0  0  0  0
   -5.0067    1.8349    7.0215 H   0  0  0  0  0  0  0  0  0  0  0  0
   -2.9870   -0.3804    6.5950 H   0  0  0  0  0  0  0  0  0  0  0  0
   -5.1263   -1.7011    7.5738 H   0  0  0  0  0  0  0  0  0  0  0  0
   -5.5162   -0.1308    8.2818 H   0  0  0  0  0  0  0  0  0  0  0  0
   -3.9288   -0.9510    8.6591 H   0  0  0  0  0  0  0  0  0  0  0  0
   -5.8767   -0.3001    5.5582 H   0  0  0  0  0  0  0  0  0  0  0  0
   -4.3770    0.1372    4.5606 H   0  0  0  0  0  0  0  0  0  0  0  0
   -4.5823   -1.4838    5.2592 H   0  0  0  0  0  0  0  0  0  0  0  0
   -4.4959    1.4714    9.7298 H   0  0  0  0  0  0  0  0  0  0  0  0
   -4.6635    3.0175    8.8441 H   0  0  0  0  0  0  0  0  0  0  0  0
   -3.2533    2.7681    9.9305 H   0  0  0  0  0  0  0  0  0  0  0  0
    0.7387    1.8040    8.2375 H   0  0  0  0  0  0  0  0  0  0  0  0
    0.4652    0.0860    8.7338 H   0  0  0  0  0  0  0  0  0  0  0  0
    1.3729    2.2605    5.9367 H   0  0  0  0  0  0  0  0  0  0  0  0
    2.8658    1.7450    4.1473 H   0  0  0  0  0  0  0  0  0  0  0  0
    3.0775   -2.2880    5.4880 H   0  0  0  0  0  0  0  0  0  0  0  0
    1.5003   -1.7187    7.3691 H   0  0  0  0  0  0  0  0  0  0  0  0
    4.9374   -0.2768    3.6220 H   0  0  0  0  0  0  0  0  0  0  0  0
    4.0480   -0.3014    0.7532 H   0  0  0  0  0  0  0  0  0  0  0  0
    6.0046   -0.3846    1.8579 H   0  0  0  0  0  0  0  0  0  0  0  0
    6.1566   -1.4852    0.4923 H   0  0  0  0  0  0  0  0  0  0  0  0
    5.8433   -2.4598    3.4163 H   0  0  0  0  0  0  0  0  0  0  0  0
    6.1586   -3.4173    1.8734 H   0  0  0  0  0  0  0  0  0  0  0  0
    8.0800   -2.3528    1.3861 H   0  0  0  0  0  0  0  0  0  0  0  0
    7.9714   -1.1068    2.6247 H   0  0  0  0  0  0  0  0  0  0  0  0
    8.9740   -2.6712    4.0873 H   0  0  0  0  0  0  0  0  0  0  0  0
    9.1019   -5.1145    5.0305 H   0  0  0  0  0  0  0  0  0  0  0  0
    9.8414   -6.0401    3.6374 H   0  0  0  0  0  0  0  0  0  0  0  0
    4.2003   -2.0471   -0.7381 H   0  0  0  0  0  0  0  0  0  0  0  0
    1.7439   -3.1871   -1.6836 H   0  0  0  0  0  0  0  0  0  0  0  0
    2.6869   -5.3452   -2.5018 H   0  0  0  0  0  0  0  0  0  0  0  0
    3.1865   -6.4632   -0.4693 H   0  0  0  0  0  0  0  0  0  0  0  0
    4.5823   -6.3443   -1.5337 H   0  0  0  0  0  0  0  0  0  0  0  0
    4.5914   -5.3044   -0.0833 H   0  0  0  0  0  0  0  0  0  0  0  0
    4.5060   -4.4989   -3.4751 H   0  0  0  0  0  0  0  0  0  0  0  0
    5.1912   -3.7481   -1.9957 H   0  0  0  0  0  0  0  0  0  0  0  0
    3.8304   -2.9774   -2.8638 H   0  0  0  0  0  0  0  0  0  0  0  0
    1.3837   -5.7152   -0.0430 H   0  0  0  0  0  0  0  0  0  0  0  0
   -1.0432   -6.5224   -0.7949 H   0  0  0  0  0  0  0  0  0  0  0  0
   -0.9914   -5.6278    0.8066 H   0  0  0  0  0  0  0  0  0  0  0  0
   -3.2433   -5.9044    0.0752 H   0  0  0  0  0  0  0  0  0  0  0  0
   -2.8185   -4.1793    0.1590 H   0  0  0  0  0  0  0  0  0  0  0  0
   -2.5323   -4.1286   -2.3687 H   0  0  0  0  0  0  0  0  0  0  0  0
   -3.0836   -5.8013   -2.3973 H   0  0  0  0  0  0  0  0  0  0  0  0
   -5.1346   -5.2463   -1.3042 H   0  0  0  0  0  0  0  0  0  0  0  0
   -4.6971   -3.4599   -1.2320 H   0  0  0  0  0  0  0  0  0  0  0  0
   -5.1141   -5.0891   -3.7826 H   0  0  0  0  0  0  0  0  0  0  0  0
   -4.6046   -3.3160   -3.6674 H   0  0  0  0  0  0  0  0  0  0  0  0
   -9.8223   -4.3230   -2.9540 H   0  0  0  0  0  0  0  0  0  0  0  0
   -9.2782   -1.7960   -2.7667 H   0  0  0  0  0  0  0  0  0  0  0  0
  1  2  1  0
  2  3  1  0
  3  4  1  0
  3  5  1  0
  5  6  1  0
  6  7  1  0
  7  8  1  0
  8  9  2  0
  8 10  1  0
 10 11  1  0
 11 12  1  0
 12 13  1  0
 13 14  1  0
 14 15  1  0
 15 16  1  0
 16 17  1  0
 16 18  1  0
 18 19  2  0
 18 20  1  0
 20 21  1  0
 21 22  1  0
 21 23  1  0
 23 24  1  0
 24 25  2  0
 25 26  1  0
 26 27  2  0
 27 28  1  0
 28 29  2  0
 23 30  1  0
 15 31  1  0
 31 32  1  0
  6 33  1  0
 33 34  1  0
  5 35  1  0
 35 36  1  0
 35 37  1  0
 37 38  2  0
 37 39  1  0
 39 40  1  0
 40 41  1  0
 40 42  1  0
 39 43  1  0
 43 44  1  0
 44 45  2  0
 44 46  1  0
 46 47  1  0
 47 48  1  0
 47 49  1  0
 46 50  1  0
 50 51  1  0
 50 52  1  0
 52 53  2  0
 52 54  1  0
 54 55  1  0
 55 56  1  0
 56 57  1  0
 57 58  2  0
 58 59  1  0
 59 60  2  0
 60 61  1  0
 59 62  1  0
 62 63  1  0
 63 64  2  0
 63 65  1  0
 65 66  1  0
 66 67  1  0
 67 68  1  0
 68 69  1  0
 69 70  1  0
 70 71  2  0
 70 72  1  0
 65 73  1  0
 73 74  1  0
 74 75  2  0
 74 76  1  0
 76 77  1  0
 77 78  1  0
 77 79  1  0
 76 80  1  0
 80 81  1  0
 81 82  2  0
 81 83  1  0
 83 84  1  0
 84 85  1  0
 85 86  1  0
 86 87  1  0
 87 88  1  0
 88 89  1  0
 89 90  2  0
 89 91  1  0
 91 92  2  0
 92 93  1  0
 93 94  2  0
 14 10  1  0
 29 24  1  0
 61 56  2  0
 93 88  1  0
  1 95  1  0
  1 96  1  0
  1 97  1  0
  2 98  1  0
  2 99  1  0
  3100  1  1
  4101  1  0
  4102  1  0
  4103  1  0
  5104  1  1
  6105  1  1
  7106  1  0
  7107  1  0
 11108  1  0
 11109  1  0
 12110  1  0
 12111  1  0
 13112  1  0
 13113  1  0
 14114  1  6
 15115  1  1
 16116  1  6
 17117  1  0
 17118  1  0
 17119  1  0
 20120  1  0
 21121  1  6
 22122  1  0
 22123  1  0
 22124  1  0
 23125  1  6
 25126  1  0
 26127  1  0
 27128  1  0
 28129  1  0
 29130  1  0
 30131  1  0
 32132  1  0
 32133  1  0
 32134  1  0
 34135  1  0
 34136  1  0
 34137  1  0
 36138  1  0
 36139  1  0
 36140  1  0
 39141  1  6
 40142  1  0
 41143  1  0
 41144  1  0
 41145  1  0
 42146  1  0
 42147  1  0
 42148  1  0
 43149  1  0
 46150  1  1
 47151  1  0
 48152  1  0
 48153  1  0
 48154  1  0
 49155  1  0
 49156  1  0
 49157  1  0
 51158  1  0
 51159  1  0
 51160  1  0
 55161  1  0
 55162  1  0
 57163  1  0
 58164  1  0
 60165  1  0
 61166  1  0
 62167  1  0
 65168  1  6
 66169  1  0
 66170  1  0
 67171  1  0
 67172  1  0
 68173  1  0
 68174  1  0
 69175  1  0
 72176  1  0
 72177  1  0
 73178  1  0
 76179  1  6
 77180  1  0
 78181  1  0
 78182  1  0
 78183  1  0
 79184  1  0
 79185  1  0
 79186  1  0
 80187  1  0
 83188  1  0
 83189  1  0
 84190  1  0
 84191  1  0
 85192  1  0
 85193  1  0
 86194  1  0
 86195  1  0
 87196  1  0
 87197  1  0
 91198  1  0
 92199  1  0
M  END
$$$$

     RDKit          3D

199202  0  0  0  0  0  0  0  0999 V2000
    1.3685    5.7058   -4.2153 C   0  0  0  0  0  0  0  0  0  0  0  0
    0.7481    5.8782   -2.8509 C   0  0  0  0  0  0  0  0  0  0  0  0
    1.7065    5.8014   -1.7096 C   0  0  2  0  0  0  0  0  0  0  0  0
    2.8128    6.8242   -1.8077 C   0  0  0  0  0  0  0  0  0  0  0  0
    2.0302    4.5142   -1.0767 C   0  0  1  0  0  0  0  0  0  0  0  0
    0.7828    3.8672   -0.4505 C   0  0  1  0  0  0  0  0  0  0  0  0
    1.1729    2.7779    0.4973 C   0  0  0  0  0  0  0  0  0  0  0  0
    0.0609    2.0537    1.1124 C   0  0  0  0  0  0  0  0  0  0  0  0
   -1.1378    2.1238    0.8233 O   0  0  0  0  0  0  0  0  0  0  0  0
    0.3987    1.1477    2.1916 N   0  0  0  0  0  0  0  0  0  0  0  0
    1.7671    0.9856    2.6348 C   0  0  0  0  0  0  0  0  0  0  0  0
    1.8010   -0.0845    3.6491 C   0  0  0  0  0  0  0  0  0  0  0  0
    0.4026   -0.5740    3.7430 C   0  0  0  0  0  0  0  0  0  0  0  0
   -0.5035    0.3031    2.9508 C   0  0  1  0  0  0  0  0  0  0  0  0
   -1.3543    1.1972    3.8031 C   0  0  1  0  0  0  0  0  0  0  0  0
   -2.6048    0.6331    4.3523 C   0  0  1  0  0  0  0  0  0  0  0  0
   -3.5655    0.1923    3.2253 C   0  0  0  0  0  0  0  0  0  0  0  0
   -2.4602   -0.5962    5.1775 C   0  0  0  0  0  0  0  0  0  0  0  0
   -2.5846   -0.4049    6.4418 O   0  0  0  0  0  0  0  0  0  0  0  0
   -2.2082   -1.8794    4.6335 N   0  0  0  0  0  0  0  0  0  0  0  0
   -2.0600   -3.0957    5.3930 C   0  0  2  0  0  0  0  0  0  0  0  0
   -0.6565   -3.6672    5.2532 C   0  0  0  0  0  0  0  0  0  0  0  0
   -3.0057   -4.1604    4.9223 C   0  0  1  0  0  0  0  0  0  0  0  0
   -4.4199   -3.8746    5.1896 C   0  0  0  0  0  0  0  0  0  0  0  0
   -5.3699   -4.5323    4.4302 C   0  0  0  0  0  0  0  0  0  0  0  0
   -6.7346   -4.3262    4.6439 C   0  0  0  0  0  0  0  0  0  0  0  0
   -7.1355   -3.4537    5.6271 C   0  0  0  0  0  0  0  0  0  0  0  0
   -6.2187   -2.7792    6.4057 C   0  0  0  0  0  0  0  0  0  0  0  0
   -4.8886   -3.0172    6.1555 C   0  0  0  0  0  0  0  0  0  0  0  0
   -2.7419   -4.3749    3.5494 O   0  0  0  0  0  0  0  0  0  0  0  0
   -0.5373    1.8834    4.6522 O   0  0  0  0  0  0  0  0  0  0  0  0
   -0.3680    3.2190    4.4446 C   0  0  0  0  0  0  0  0  0  0  0  0
    0.0854    4.8199    0.2388 O   0  0  0  0  0  0  0  0  0  0  0  0
   -1.1725    5.1620    0.0269 C   0  0  0  0  0  0  0  0  0  0  0  0
    2.8436    3.5647   -1.7916 N   0  0  0  0  0  0  0  0  0  0  0  0
    2.3660    2.9882   -3.0237 C   0  0  0  0  0  0  0  0  0  0  0  0
    4.0936    3.1178   -1.2448 C   0  0  0  0  0  0  0  0  0  0  0  0
    4.4332    3.5137   -0.0806 O   0  0  0  0  0  0  0  0  0  0  0  0
    5.0087    2.2188   -1.9418 C   0  0  1  0  0  0  0  0  0  0  0  0
    6.1054    3.0684   -2.6626 C   0  0  0  0  0  0  0  0  0  0  0  0
    6.9218    2.0827   -3.4708 C   0  0  0  0  0  0  0  0  0  0  0  0
    5.5091    4.0817   -3.5824 C   0  0  0  0  0  0  0  0  0  0  0  0
    5.7588    1.4390   -0.9601 N   0  0  0  0  0  0  0  0  0  0  0  0
    7.0848    1.3362   -0.6184 C   0  0  0  0  0  0  0  0  0  0  0  0
    8.0779    1.9434   -1.0572 O   0  0  0  0  0  0  0  0  0  0  0  0
    7.4428    0.3198    0.4589 C   0  0  1  0  0  0  0  0  0  0  0  0
    8.6092    0.6292    1.2596 C   0  0  0  0  0  0  0  0  0  0  0  0
    8.5406    1.9347    2.0326 C   0  0  0  0  0  0  0  0  0  0  0  0
    9.9302    0.6286    0.5192 C   0  0  0  0  0  0  0  0  0  0  0  0
    6.2529   -0.0158    1.1834 N   0  0  0  0  0  0  0  0  0  0  0  0
    5.7395    0.8582    2.2167 C   0  0  0  0  0  0  0  0  0  0  0  0
    5.5158   -1.2477    0.9250 C   0  0  0  0  0  0  0  0  0  0  0  0
    4.4780   -1.5034    1.5525 O   0  0  0  0  0  0  0  0  0  0  0  0
    6.0482   -2.0550   -0.0348 O   0  0  0  0  0  0  0  0  0  0  0  0
    5.4555   -3.2620   -0.4523 C   0  0  0  0  0  0  0  0  0  0  0  0
    4.1036   -2.9936   -1.0589 C   0  0  0  0  0  0  0  0  0  0  0  0
    2.9191   -3.1264   -0.3889 C   0  0  0  0  0  0  0  0  0  0  0  0
    1.7404   -2.7932   -1.0776 C   0  0  0  0  0  0  0  0  0  0  0  0
    1.7768   -2.3497   -2.3755 C   0  0  0  0  0  0  0  0  0  0  0  0
    3.0042   -2.2214   -3.0435 C   0  0  0  0  0  0  0  0  0  0  0  0
    4.1651   -2.5431   -2.3860 C   0  0  0  0  0  0  0  0  0  0  0  0
    0.6394   -1.9983   -3.1497 N   0  0  0  0  0  0  0  0  0  0  0  0
    0.0485   -2.9651   -4.0039 C   0  0  0  0  0  0  0  0  0  0  0  0
    0.5751   -4.1074   -4.0146 O   0  0  0  0  0  0  0  0  0  0  0  0
   -1.1456   -2.6387   -4.8606 C   0  0  1  0  0  0  0  0  0  0  0  0
   -2.2191   -3.6868   -4.7419 C   0  0  0  0  0  0  0  0  0  0  0  0
   -3.3541   -3.2895   -5.6254 C   0  0  0  0  0  0  0  0  0  0  0  0
   -4.5754   -4.1142   -5.6541 C   0  0  0  0  0  0  0  0  0  0  0  0
   -4.4088   -5.4751   -6.0237 N   0  0  0  0  0  0  0  0  0  0  0  0
   -3.7602   -6.5001   -5.3143 C   0  0  0  0  0  0  0  0  0  0  0  0
   -3.2201   -6.3876   -4.1912 O   0  0  0  0  0  0  0  0  0  0  0  0
   -3.6969   -7.8042   -5.9029 N   0  0  0  0  0  0  0  0  0  0  0  0
   -1.6157   -1.3041   -4.5812 N   0  0  0  0  0  0  0  0  0  0  0  0
   -1.0580   -0.1195   -5.1238 C   0  0  0  0  0  0  0  0  0  0  0  0
   -0.0819   -0.0872   -5.9090 O   0  0  0  0  0  0  0  0  0  0  0  0
   -1.6865    1.1683   -4.7098 C   0  0  1  0  0  0  0  0  0  0  0  0
   -1.6384    2.2379   -5.7658 C   0  0  0  0  0  0  0  0  0  0  0  0
   -0.2344    2.5985   -6.1871 C   0  0  0  0  0  0  0  0  0  0  0  0
   -2.2752    3.5229   -5.2655 C   0  0  0  0  0  0  0  0  0  0  0  0
   -2.9616    0.9860   -4.1068 N   0  0  0  0  0  0  0  0  0  0  0  0
   -3.2580    0.7542   -2.7434 C   0  0  0  0  0  0  0  0  0  0  0  0
   -2.3291    0.6722   -1.8707 O   0  0  0  0  0  0  0  0  0  0  0  0
   -4.6925    0.6089   -2.3914 C   0  0  0  0  0  0  0  0  0  0  0  0
   -4.9791    0.0225   -1.0561 C   0  0  0  0  0  0  0  0  0  0  0  0
   -6.5131   -0.0008   -0.9398 C   0  0  0  0  0  0  0  0  0  0  0  0
   -6.9415   -0.6330    0.3471 C   0  0  0  0  0  0  0  0  0  0  0  0
   -8.4754   -0.5819    0.3472 C   0  0  0  0  0  0  0  0  0  0  0  0
   -8.9184   -1.2302    1.5586 N   0  0  0  0  0  0  0  0  0  0  0  0
   -9.1961   -2.6393    1.6039 C   0  0  0  0  0  0  0  0  0  0  0  0
   -9.0944   -3.4489    0.6435 O   0  0  0  0  0  0  0  0  0  0  0  0
   -9.6192   -2.9704    2.9606 C   0  0  0  0  0  0  0  0  0  0  0  0
   -9.6008   -1.8538    3.6858 C   0  0  0  0  0  0  0  0  0  0  0  0
   -9.1675   -0.7247    2.8533 C   0  0  0  0  0  0  0  0  0  0  0  0
   -9.0290    0.4791    3.1846 O   0  0  0  0  0  0  0  0  0  0  0  0
    2.4753    5.6617   -4.1747 H   0  0  0  0  0  0  0  0  0  0  0  0
    1.0248    6.5720   -4.8517 H   0  0  0  0  0  0  0  0  0  0  0  0
    0.9138    4.8236   -4.6990 H   0  0  0  0  0  0  0  0  0  0  0  0
    0.2190    6.8498   -2.8645 H   0  0  0  0  0  0  0  0  0  0  0  0
   -0.0709    5.1293   -2.7826 H   0  0  0  0  0  0  0  0  0  0  0  0
    1.0694    6.3075   -0.8440 H   0  0  0  0  0  0  0  0  0  0  0  0
    3.3443    6.9431   -0.8600 H   0  0  0  0  0  0  0  0  0  0  0  0
    2.2947    7.8102   -1.9894 H   0  0  0  0  0  0  0  0  0  0  0  0
    3.4511    6.6929   -2.6979 H   0  0  0  0  0  0  0  0  0  0  0  0
    2.5997    4.7751   -0.1541 H   0  0  0  0  0  0  0  0  0  0  0  0
    0.1707    3.4529   -1.2417 H   0  0  0  0  0  0  0  0  0  0  0  0
    1.6949    1.9589   -0.0872 H   0  0  0  0  0  0  0  0  0  0  0  0
    1.8195    3.1330    1.3289 H   0  0  0  0  0  0  0  0  0  0  0  0
    2.2503    1.9348    2.9372 H   0  0  0  0  0  0  0  0  0  0  0  0
    2.3130    0.6290    1.7333 H   0  0  0  0  0  0  0  0  0  0  0  0
    2.4601   -0.9541    3.3534 H   0  0  0  0  0  0  0  0  0  0  0  0
    2.2296    0.2442    4.6284 H   0  0  0  0  0  0  0  0  0  0  0  0
    0.3129   -1.6219    3.3444 H   0  0  0  0  0  0  0  0  0  0  0  0
    0.1597   -0.5941    4.8311 H   0  0  0  0  0  0  0  0  0  0  0  0
   -1.0956   -0.2623    2.1956 H   0  0  0  0  0  0  0  0  0  0  0  0
   -1.7157    2.0002    3.0630 H   0  0  0  0  0  0  0  0  0  0  0  0
   -3.1912    1.3831    4.9021 H   0  0  0  0  0  0  0  0  0  0  0  0
   -3.0655   -0.5152    2.5709 H   0  0  0  0  0  0  0  0  0  0  0  0
   -4.4459   -0.2843    3.7238 H   0  0  0  0  0  0  0  0  0  0  0  0
   -3.9761    1.0832    2.7167 H   0  0  0  0  0  0  0  0  0  0  0  0
   -2.1149   -1.9901    3.5781 H   0  0  0  0  0  0  0  0  0  0  0  0
   -2.2143   -2.9359    6.4792 H   0  0  0  0  0  0  0  0  0  0  0  0
   -0.6971   -4.6904    5.6762 H   0  0  0  0  0  0  0  0  0  0  0  0
    0.0932   -3.1023    5.8361 H   0  0  0  0  0  0  0  0  0  0  0  0
   -0.4129   -3.7679    4.1894 H   0  0  0  0  0  0  0  0  0  0  0  0
   -2.7252   -5.1543    5.3875 H   0  0  0  0  0  0  0  0  0  0  0  0
   -5.1281   -5.2289    3.6403 H   0  0  0  0  0  0  0  0  0  0  0  0
   -7.4938   -4.8316    4.0621 H   0  0  0  0  0  0  0  0  0  0  0  0
   -8.1735   -3.2650    5.8296 H   0  0  0  0  0  0  0  0  0  0  0  0
   -6.4950   -2.0866    7.1883 H   0  0  0  0  0  0  0  0  0  0  0  0
   -4.1736   -2.5005    6.7702 H   0  0  0  0  0  0  0  0  0  0  0  0
   -3.5297   -4.1378    2.9992 H   0  0  0  0  0  0  0  0  0  0  0  0
   -1.3154    3.8129    4.4954 H   0  0  0  0  0  0  0  0  0  0  0  0
    0.2023    3.5896    5.3504 H   0  0  0  0  0  0  0  0  0  0  0  0
    0.2894    3.5055    3.5995 H   0  0  0  0  0  0  0  0  0  0  0  0
   -1.4230    5.5567   -1.0020 H   0  0  0  0  0  0  0  0  0  0  0  0
   -1.3499    6.1179    0.6559 H   0  0  0  0  0  0  0  0  0  0  0  0
   -1.9949    4.5112    0.3899 H   0  0  0  0  0  0  0  0  0  0  0  0
    1.2715    3.0356   -3.1473 H   0  0  0  0  0  0  0  0  0  0  0  0
    2.5326    1.8592   -2.9862 H   0  0  0  0  0  0  0  0  0  0  0  0
    2.8462    3.2974   -3.9387 H   0  0  0  0  0  0  0  0  0  0  0  0
    4.6956    1.5925   -2.7544 H   0  0  0  0  0  0  0  0  0  0  0  0
    6.7273    3.5829   -1.8961 H   0  0  0  0  0  0  0  0  0  0  0  0
    7.9516    2.4455   -3.6168 H   0  0  0  0  0  0  0  0  0  0  0  0
    6.4594    2.0997   -4.5196 H   0  0  0  0  0  0  0  0  0  0  0  0
    6.8175    1.0350   -3.1349 H   0  0  0  0  0  0  0  0  0  0  0  0
    5.1970    3.5845   -4.5151 H   0  0  0  0  0  0  0  0  0  0  0  0
    6.2587    4.8738   -3.8701 H   0  0  0  0  0  0  0  0  0  0  0  0
    4.6906    4.6102   -3.0529 H   0  0  0  0  0  0  0  0  0  0  0  0
    5.0703    0.8043   -0.3918 H   0  0  0  0  0  0  0  0  0  0  0  0
    7.6885   -0.5728   -0.2336 H   0  0  0  0  0  0  0  0  0  0  0  0
    8.7643   -0.1460    2.0740 H   0  0  0  0  0  0  0  0  0  0  0  0
    8.1367    1.8101    3.0426 H   0  0  0  0  0  0  0  0  0  0  0  0
    8.0719    2.7593    1.4521 H   0  0  0  0  0  0  0  0  0  0  0  0
    9.5958    2.3156    2.1963 H   0  0  0  0  0  0  0  0  0  0  0  0
   10.1565    1.6121    0.0321 H   0  0  0  0  0  0  0  0  0  0  0  0
   10.0585   -0.2207   -0.1670 H   0  0  0  0  0  0  0  0  0  0  0  0
   10.7250    0.5282    1.2871 H   0  0  0  0  0  0  0  0  0  0  0  0
    4.6159    0.7540    2.2715 H   0  0  0  0  0  0  0  0  0  0  0  0
    6.1656    0.4919    3.1820 H   0  0  0  0  0  0  0  0  0  0  0  0
    5.9196    1.9193    2.0571 H   0  0  0  0  0  0  0  0  0  0  0  0
    5.3363   -3.9842    0.3821 H   0  0  0  0  0  0  0  0  0  0  0  0
    6.1397   -3.7138   -1.1966 H   0  0  0  0  0  0  0  0  0  0  0  0
    2.8995   -3.4803    0.6268 H   0  0  0  0  0  0  0  0  0  0  0  0
    0.7708   -2.8837   -0.5853 H   0  0  0  0  0  0  0  0  0  0  0  0
    3.0392   -1.8688   -4.0758 H   0  0  0  0  0  0  0  0  0  0  0  0
    5.1002   -2.4403   -2.9136 H   0  0  0  0  0  0  0  0  0  0  0  0
    0.2390   -1.0403   -3.0972 H   0  0  0  0  0  0  0  0  0  0  0  0
   -0.7250   -2.6561   -5.8858 H   0  0  0  0  0  0  0  0  0  0  0  0
   -1.7515   -4.5916   -5.2223 H   0  0  0  0  0  0  0  0  0  0  0  0
   -2.5766   -3.8318   -3.7269 H   0  0  0  0  0  0  0  0  0  0  0  0
   -3.0125   -3.1755   -6.6970 H   0  0  0  0  0  0  0  0  0  0  0  0
   -3.6577   -2.2244   -5.3600 H   0  0  0  0  0  0  0  0  0  0  0  0
   -5.1247   -4.0613   -4.6518 H   0  0  0  0  0  0  0  0  0  0  0  0
   -5.2821   -3.6473   -6.3966 H   0  0  0  0  0  0  0  0  0  0  0  0
   -4.8240   -5.7698   -6.9655 H   0  0  0  0  0  0  0  0  0  0  0  0
   -4.5445   -8.2905   -6.2695 H   0  0  0  0  0  0  0  0  0  0  0  0
   -2.7401   -8.2422   -5.9440 H   0  0  0  0  0  0  0  0  0  0  0  0
   -2.4416   -1.2411   -3.9144 H   0  0  0  0  0  0  0  0  0  0  0  0
   -0.9977    1.5084   -3.8640 H   0  0  0  0  0  0  0  0  0  0  0  0
   -2.1559    1.9111   -6.7024 H   0  0  0  0  0  0  0  0  0  0  0  0
   -0.1740    3.6751   -6.4954 H   0  0  0  0  0  0  0  0  0  0  0  0
    0.4471    2.5009   -5.3200 H   0  0  0  0  0  0  0  0  0  0  0  0
    0.1675    1.9890   -7.0074 H   0  0  0  0  0  0  0  0  0  0  0  0
   -1.5684    4.3658   -5.2452 H   0  0  0  0  0  0  0  0  0  0  0  0
   -2.7351    3.3703   -4.2583 H   0  0  0  0  0  0  0  0  0  0  0  0
   -3.0670    3.8011   -5.9850 H   0  0  0  0  0  0  0  0  0  0  0  0
   -3.7973    1.0365   -4.7721 H   0  0  0  0  0  0  0  0  0  0  0  0
   -5.0987    1.6681   -2.3961 H   0  0  0  0  0  0  0  0  0  0  0  0
   -5.2540    0.1040   -3.2167 H   0  0  0  0  0  0  0  0  0  0  0  0
   -4.5848    0.6293   -0.2336 H   0  0  0  0  0  0  0  0  0  0  0  0
   -4.6212   -1.0209   -0.9772 H   0  0  0  0  0  0  0  0  0  0  0  0
   -6.9747   -0.5710   -1.7717 H   0  0  0  0  0  0  0  0  0  0  0  0
   -6.8759    1.0526   -0.9598 H   0  0  0  0  0  0  0  0  0  0  0  0
   -6.6245   -1.7171    0.3657 H   0  0  0  0  0  0  0  0  0  0  0  0
   -6.5199   -0.1628    1.2315 H   0  0  0  0  0  0  0  0  0  0  0  0
   -8.8967   -1.0525   -0.5454 H   0  0  0  0  0  0  0  0  0  0  0  0
   -8.7454    0.5077    0.3654 H   0  0  0  0  0  0  0  0  0  0  0  0
   -9.8958   -3.9686    3.2865 H   0  0  0  0  0  0  0  0  0  0  0  0
   -9.8703   -1.8016    4.7347 H   0  0  0  0  0  0  0  0  0  0  0  0
  1  2  1  0
  2  3  1  0
  3  4  1  0
  3  5  1  0
  5  6  1  0
  6  7  1  0
  7  8  1  0
  8  9  2  0
  8 10  1  0
 10 11  1  0
 11 12  1  0
 12 13  1  0
 13 14  1  0
 14 15  1  0
 15 16  1  0
 16 17  1  0
 16 18  1  0
 18 19  2  0
 18 20  1  0
 20 21  1  0
 21 22  1  0
 21 23  1  0
 23 24  1  0
 24 25  2  0
 25 26  1  0
 26 27  2  0
 27 28  1  0
 28 29  2  0
 23 30  1  0
 15 31  1  0
 31 32  1  0
  6 33  1  0
 33 34  1  0
  5 35  1  0
 35 36  1  0
 35 37  1  0
 37 38  2  0
 37 39  1  0
 39 40  1  0
 40 41  1  0
 40 42  1  0
 39 43  1  0
 43 44  1  0
 44 45  2  0
 44 46  1  0
 46 47  1  0
 47 48  1  0
 47 49  1  0
 46 50  1  0
 50 51  1  0
 50 52  1  0
 52 53  2  0
 52 54  1  0
 54 55  1  0
 55 56  1  0
 56 57  1  0
 57 58  2  0
 58 59  1  0
 59 60  2  0
 60 61  1  0
 59 62  1  0
 62 63  1  0
 63 64  2  0
 63 65  1  0
 65 66  1  0
 66 67  1  0
 67 68  1  0
 68 69  1  0
 69 70  1  0
 70 71  2  0
 70 72  1  0
 65 73  1  0
 73 74  1  0
 74 75  2  0
 74 76  1  0
 76 77  1  0
 77 78  1  0
 77 79  1  0
 76 80  1  0
 80 81  1  0
 81 82  2  0
 81 83  1  0
 83 84  1  0
 84 85  1  0
 85 86  1  0
 86 87  1  0
 87 88  1  0
 88 89  1  0
 89 90  2  0
 89 91  1  0
 91 92  2  0
 92 93  1  0
 93 94  2  0
 14 10  1  0
 29 24  1  0
 61 56  2  0
 93 88  1  0
  1 95  1  0
  1 96  1  0
  1 97  1  0
  2 98  1  0
  2 99  1  0
  3100  1  1
  4101  1  0
  4102  1  0
  4103  1  0
  5104  1  1
  6105  1  6
  7106  1  0
  7107  1  0
 11108  1  0
 11109  1  0
 12110  1  0
 12111  1  0
 13112  1  0
 13113  1  0
 14114  1  6
 15115  1  6
 16116  1  1
 17117  1  0
 17118  1  0
 17119  1  0
 20120  1  0
 21121  1  1
 22122  1  0
 22123  1  0
 22124  1  0
 23125  1  1
 25126  1  0
 26127  1  0
 27128  1  0
 28129  1  0
 29130  1  0
 30131  1  0
 32132  1  0
 32133  1  0
 32134  1  0
 34135  1  0
 34136  1  0
 34137  1  0
 36138  1  0
 36139  1  0
 36140  1  0
 39141  1  6
 40142  1  0
 41143  1  0
 41144  1  0
 41145  1  0
 42146  1  0
 42147  1  0
 42148  1  0
 43149  1  0
 46150  1  6
 47151  1  0
 48152  1  0
 48153  1  0
 48154  1  0
 49155  1  0
 49156  1  0
 49157  1  0
 51158  1  0
 51159  1  0
 51160  1  0
 55161  1  0
 55162  1  0
 57163  1  0
 58164  1  0
 60165  1  0
 61166  1  0
 62167  1  0
 65168  1  6
 66169  1  0
 66170  1  0
 67171  1  0
 67172  1  0
 68173  1  0
 68174  1  0
 69175  1  0
 72176  1  0
 72177  1  0
 73178  1  0
 76179  1  1
 77180  1  0
 78181  1  0
 78182  1  0
 78183  1  0
 79184  1  0
 79185  1  0
 79186  1  0
 80187  1  0
 83188  1  0
 83189  1  0
 84190  1  0
 84191  1  0
 85192  1  0
 85193  1  0
 86194  1  0
 86195  1  0
 87196  1  0
 87197  1  0
 91198  1  0
 92199  1  0
M  END
$$$$

     RDKit          3D

199202  0  0  0  0  0  0  0  0999 V2000
    0.6993   -6.1252    2.7912 C   0  0  0  0  0  0  0  0  0  0  0  0
    1.4172   -6.2007    1.4627 C   0  0  0  0  0  0  0  0  0  0  0  0
    1.9395   -4.8417    1.0325 C   0  0  2  0  0  0  0  0  0  0  0  0
    0.7936   -3.9088    0.9079 C   0  0  0  0  0  0  0  0  0  0  0  0
    2.7886   -5.0385   -0.2011 C   0  0  1  0  0  0  0  0  0  0  0  0
    2.1024   -5.6236   -1.3569 C   0  0  1  0  0  0  0  0  0  0  0  0
    1.6990   -4.7032   -2.4997 C   0  0  0  0  0  0  0  0  0  0  0  0
    2.8397   -4.1314   -3.1968 C   0  0  0  0  0  0  0  0  0  0  0  0
    3.9500   -4.8161   -3.0677 O   0  0  0  0  0  0  0  0  0  0  0  0
    2.9923   -2.9898   -3.9816 N   0  0  0  0  0  0  0  0  0  0  0  0
    4.3788   -2.7798   -4.5879 C   0  0  0  0  0  0  0  0  0  0  0  0
    4.0171   -2.3483   -5.9831 C   0  0  0  0  0  0  0  0  0  0  0  0
    2.7097   -1.6690   -5.8649 C   0  0  0  0  0  0  0  0  0  0  0  0
    2.3176   -1.8310   -4.3966 C   0  0  1  0  0  0  0  0  0  0  0  0
    0.8241   -1.6980   -4.2620 C   0  0  1  0  0  0  0  0  0  0  0  0
    0.5243   -0.2014   -4.5532 C   0  0  1  0  0  0  0  0  0  0  0  0
   -0.9259    0.1254   -4.4703 C   0  0  0  0  0  0  0  0  0  0  0  0
    1.1663    0.5802   -3.4171 C   0  0  0  0  0  0  0  0  0  0  0  0
    2.1906    1.2330   -3.6345 O   0  0  0  0  0  0  0  0  0  0  0  0
    0.5143    0.4872   -2.1755 N   0  0  0  0  0  0  0  0  0  0  0  0
    0.8999    1.0788   -0.9259 C   0  0  2  0  0  0  0  0  0  0  0  0
    0.8746   -0.0681    0.0937 C   0  0  0  0  0  0  0  0  0  0  0  0
    0.0477    2.1508   -0.3732 C   0  0  1  0  0  0  0  0  0  0  0  0
    0.1779    3.5161   -0.8044 C   0  0  0  0  0  0  0  0  0  0  0  0
    1.1065    4.0459   -1.6695 C   0  0  0  0  0  0  0  0  0  0  0  0
    1.1802    5.3715   -2.0262 C   0  0  0  0  0  0  0  0  0  0  0  0
    0.2644    6.2571   -1.4868 C   0  0  0  0  0  0  0  0  0  0  0  0
   -0.6838    5.7718   -0.6145 C   0  0  0  0  0  0  0  0  0  0  0  0
   -0.7380    4.4422   -0.2746 C   0  0  0  0  0  0  0  0  0  0  0  0
   -1.2833    1.7673   -0.2437 O   0  0  0  0  0  0  0  0  0  0  0  0
    0.0535   -2.5341   -4.9672 O   0  0  0  0  0  0  0  0  0  0  0  0
   -0.9197   -3.2897   -4.4406 C   0  0  0  0  0  0  0  0  0  0  0  0
    3.0656   -6.4638   -2.0811 O   0  0  0  0  0  0  0  0  0  0  0  0
    2.5973   -7.7615   -2.1269 C   0  0  0  0  0  0  0  0  0  0  0  0
    3.8301   -4.0759   -0.3302 N   0  0  0  0  0  0  0  0  0  0  0  0
    3.4404   -2.7051   -0.6675 C   0  0  0  0  0  0  0  0  0  0  0  0
    5.1696   -4.4314   -0.1004 C   0  0  0  0  0  0  0  0  0  0  0  0
    5.3297   -5.7060    0.1524 O   0  0  0  0  0  0  0  0  0  0  0  0
    6.3794   -3.6532   -0.0891 C   0  0  1  0  0  0  0  0  0  0  0  0
    7.4720   -4.2611   -0.9956 C   0  0  0  0  0  0  0  0  0  0  0  0
    8.7156   -3.4104   -0.9384 C   0  0  0  0  0  0  0  0  0  0  0  0
    7.8327   -5.6635   -0.5774 C   0  0  0  0  0  0  0  0  0  0  0  0
    6.3597   -2.2282   -0.2450 N   0  0  0  0  0  0  0  0  0  0  0  0
    6.5917   -1.4342    0.8900 C   0  0  0  0  0  0  0  0  0  0  0  0
    6.7774   -1.9914    2.0282 O   0  0  0  0  0  0  0  0  0  0  0  0
    6.6693    0.0695    0.9556 C   0  0  1  0  0  0  0  0  0  0  0  0
    5.5744    0.8445    0.4005 C   0  0  0  0  0  0  0  0  0  0  0  0
    5.3151    0.6843   -1.0768 C   0  0  0  0  0  0  0  0  0  0  0  0
    5.8226    2.3352    0.6789 C   0  0  0  0  0  0  0  0  0  0  0  0
    6.9823    0.3299    2.3745 N   0  0  0  0  0  0  0  0  0  0  0  0
    8.3803    0.6045    2.7565 C   0  0  0  0  0  0  0  0  0  0  0  0
    6.0382    0.3464    3.4098 C   0  0  0  0  0  0  0  0  0  0  0  0
    6.3969    0.3829    4.6441 O   0  0  0  0  0  0  0  0  0  0  0  0
    4.6488    0.3468    3.2377 O   0  0  0  0  0  0  0  0  0  0  0  0
    3.7840    0.3910    4.3675 C   0  0  0  0  0  0  0  0  0  0  0  0
    2.3560    0.4824    4.0465 C   0  0  0  0  0  0  0  0  0  0  0  0
    1.4815   -0.5624    3.8776 C   0  0  0  0  0  0  0  0  0  0  0  0
    0.1230   -0.3240    3.5938 C   0  0  0  0  0  0  0  0  0  0  0  0
   -0.3456    0.9549    3.4818 C   0  0  0  0  0  0  0  0  0  0  0  0
    0.5187    2.0217    3.6469 C   0  0  0  0  0  0  0  0  0  0  0  0
    1.8393    1.7813    3.9234 C   0  0  0  0  0  0  0  0  0  0  0  0
   -1.7171    1.3012    3.2150 N   0  0  0  0  0  0  0  0  0  0  0  0
   -2.5456    1.4513    4.3298 C   0  0  0  0  0  0  0  0  0  0  0  0
   -2.0197    1.2569    5.4762 O   0  0  0  0  0  0  0  0  0  0  0  0
   -4.0063    1.8238    4.3156 C   0  0  1  0  0  0  0  0  0  0  0  0
   -4.1305    3.0732    5.1005 C   0  0  0  0  0  0  0  0  0  0  0  0
   -5.4499    3.6739    5.3653 C   0  0  0  0  0  0  0  0  0  0  0  0
   -6.3628    2.8557    6.2159 C   0  0  0  0  0  0  0  0  0  0  0  0
   -6.7944    1.5941    5.7516 N   0  0  0  0  0  0  0  0  0  0  0  0
   -7.5949    1.5629    4.5565 C   0  0  0  0  0  0  0  0  0  0  0  0
   -7.8420    2.6588    4.0300 O   0  0  0  0  0  0  0  0  0  0  0  0
   -8.0295    0.3018    4.0864 N   0  0  0  0  0  0  0  0  0  0  0  0
   -4.3919    2.0854    2.9217 N   0  0  0  0  0  0  0  0  0  0  0  0
   -5.0490    1.1764    2.0731 C   0  0  0  0  0  0  0  0  0  0  0  0
   -5.3192    0.0355    2.5709 O   0  0  0  0  0  0  0  0  0  0  0  0
   -5.4310    1.4443    0.6882 C   0  0  1  0  0  0  0  0  0  0  0  0
   -6.8626    1.0521    0.3322 C   0  0  0  0  0  0  0  0  0  0  0  0
   -7.1559   -0.4033    0.5449 C   0  0  0  0  0  0  0  0  0  0  0  0
   -7.9070    1.9439    0.8967 C   0  0  0  0  0  0  0  0  0  0  0  0
   -5.1792    2.8093    0.2395 N   0  0  0  0  0  0  0  0  0  0  0  0
   -4.6237    2.9796   -1.0661 C   0  0  0  0  0  0  0  0  0  0  0  0
   -4.3609    2.0146   -1.8104 O   0  0  0  0  0  0  0  0  0  0  0  0
   -4.3239    4.3414   -1.6260 C   0  0  0  0  0  0  0  0  0  0  0  0
   -3.9059    4.1925   -3.0935 C   0  0  0  0  0  0  0  0  0  0  0  0
   -3.5457    5.4661   -3.7449 C   0  0  0  0  0  0  0  0  0  0  0  0
   -4.4764    6.5857   -3.8017 C   0  0  0  0  0  0  0  0  0  0  0  0
   -5.7520    6.5383   -4.4932 C   0  0  0  0  0  0  0  0  0  0  0  0
   -6.7259    5.6008   -4.0813 N   0  0  0  0  0  0  0  0  0  0  0  0
   -7.0886    4.2903   -4.5074 C   0  0  0  0  0  0  0  0  0  0  0  0
   -6.4929    3.7309   -5.4767 O   0  0  0  0  0  0  0  0  0  0  0  0
   -8.1729    3.7931   -3.6815 C   0  0  0  0  0  0  0  0  0  0  0  0
   -8.4980    4.7219   -2.7711 C   0  0  0  0  0  0  0  0  0  0  0  0
   -7.6306    5.8614   -2.9762 C   0  0  0  0  0  0  0  0  0  0  0  0
   -7.6815    6.9068   -2.2827 O   0  0  0  0  0  0  0  0  0  0  0  0
   -0.4110   -6.0995    2.6477 H   0  0  0  0  0  0  0  0  0  0  0  0
    1.0561   -5.3358    3.4570 H   0  0  0  0  0  0  0  0  0  0  0  0
    0.8812   -7.0995    3.3149 H   0  0  0  0  0  0  0  0  0  0  0  0
    2.2584   -6.9434    1.5501 H   0  0  0  0  0  0  0  0  0  0  0  0
    0.6929   -6.6394    0.7571 H   0  0  0  0  0  0  0  0  0  0  0  0
    2.6213   -4.5493    1.8844 H   0  0  0  0  0  0  0  0  0  0  0  0
   -0.0220   -4.1256    1.6440 H   0  0  0  0  0  0  0  0  0  0  0  0
    0.3145   -3.7869   -0.0467 H   0  0  0  0  0  0  0  0  0  0  0  0
    1.1743   -2.8869    1.2031 H   0  0  0  0  0  0  0  0  0  0  0  0
    3.4195   -5.9955    0.1652 H   0  0  0  0  0  0  0  0  0  0  0  0
    1.3129   -6.3037   -1.0884 H   0  0  0  0  0  0  0  0  0  0  0  0
    0.9410   -3.9681   -2.2542 H   0  0  0  0  0  0  0  0  0  0  0  0
    1.2111   -5.4135   -3.2398 H   0  0  0  0  0  0  0  0  0  0  0  0
    4.9641   -3.6874   -4.5433 H   0  0  0  0  0  0  0  0  0  0  0  0
    4.8828   -1.9702   -4.0787 H   0  0  0  0  0  0  0  0  0  0  0  0
    4.7568   -1.6110   -6.4004 H   0  0  0  0  0  0  0  0  0  0  0  0
    4.0338   -3.1906   -6.7072 H   0  0  0  0  0  0  0  0  0  0  0  0
    2.7817   -0.5714   -6.0613 H   0  0  0  0  0  0  0  0  0  0  0  0
    1.9032   -2.0445   -6.5333 H   0  0  0  0  0  0  0  0  0  0  0  0
    2.7711   -0.9040   -3.9099 H   0  0  0  0  0  0  0  0  0  0  0  0
    0.5800   -1.7682   -3.1727 H   0  0  0  0  0  0  0  0  0  0  0  0
    0.9784    0.0969   -5.4823 H   0  0  0  0  0  0  0  0  0  0  0  0
   -1.3774    0.1824   -5.5029 H   0  0  0  0  0  0  0  0  0  0  0  0
   -1.0855    1.1855   -4.0781 H   0  0  0  0  0  0  0  0  0  0  0  0
   -1.5390   -0.4900   -3.8179 H   0  0  0  0  0  0  0  0  0  0  0  0
   -0.3866   -0.0993   -2.1288 H   0  0  0  0  0  0  0  0  0  0  0  0
    1.9767    1.3725   -1.0036 H   0  0  0  0  0  0  0  0  0  0  0  0
    0.0056    0.0592    0.7789 H   0  0  0  0  0  0  0  0  0  0  0  0
    1.7791   -0.1231    0.6989 H   0  0  0  0  0  0  0  0  0  0  0  0
    0.7113   -1.0525   -0.3933 H   0  0  0  0  0  0  0  0  0  0  0  0
    0.3448    2.2124    0.7649 H   0  0  0  0  0  0  0  0  0  0  0  0
    1.8338    3.3801   -2.0953 H   0  0  0  0  0  0  0  0  0  0  0  0
    1.9498    5.7259   -2.7222 H   0  0  0  0  0  0  0  0  0  0  0  0
    0.3407    7.2965   -1.7789 H   0  0  0  0  0  0  0  0  0  0  0  0
   -1.4114    6.4592   -0.1931 H   0  0  0  0  0  0  0  0  0  0  0  0
   -1.5150    4.1294    0.4158 H   0  0  0  0  0  0  0  0  0  0  0  0
   -1.5957    1.4190   -1.1226 H   0  0  0  0  0  0  0  0  0  0  0  0
   -1.7437   -2.7705   -3.8974 H   0  0  0  0  0  0  0  0  0  0  0  0
   -1.5063   -3.6962   -5.3609 H   0  0  0  0  0  0  0  0  0  0  0  0
   -0.7020   -4.1902   -3.8898 H   0  0  0  0  0  0  0  0  0  0  0  0
    3.2948   -8.4419   -2.6705 H   0  0  0  0  0  0  0  0  0  0  0  0
    1.5533   -7.8330   -2.4634 H   0  0  0  0  0  0  0  0  0  0  0  0
    2.6144   -8.1677   -1.0734 H   0  0  0  0  0  0  0  0  0  0  0  0
    4.0016   -2.2768   -1.4997 H   0  0  0  0  0  0  0  0  0  0  0  0
    3.6030   -2.0368    0.2382 H   0  0  0  0  0  0  0  0  0  0  0  0
    2.3728   -2.6179   -0.8662 H   0  0  0  0  0  0  0  0  0  0  0  0
    6.8298   -3.8293    0.9542 H   0  0  0  0  0  0  0  0  0  0  0  0
    7.1498   -4.2928   -2.0366 H   0  0  0  0  0  0  0  0  0  0  0  0
    8.5114   -2.3494   -1.2183 H   0  0  0  0  0  0  0  0  0  0  0  0
    9.1731   -3.3872    0.0665 H   0  0  0  0  0  0  0  0  0  0  0  0
    9.4298   -3.7840   -1.6977 H   0  0  0  0  0  0  0  0  0  0  0  0
    7.9865   -5.7819    0.5195 H   0  0  0  0  0  0  0  0  0  0  0  0
    7.1833   -6.4441   -1.0265 H   0  0  0  0  0  0  0  0  0  0  0  0
    8.8440   -5.8583   -1.0384 H   0  0  0  0  0  0  0  0  0  0  0  0
    6.2052   -1.7463   -1.1423 H   0  0  0  0  0  0  0  0  0  0  0  0
    7.6730    0.2773    0.4195 H   0  0  0  0  0  0  0  0  0  0  0  0
    4.6339    0.5945    0.9681 H   0  0  0  0  0  0  0  0  0  0  0  0
    4.8603    1.6565   -1.4763 H   0  0  0  0  0  0  0  0  0  0  0  0
    4.5262   -0.0509   -1.2070 H   0  0  0  0  0  0  0  0  0  0  0  0
    6.2139    0.5512   -1.6847 H   0  0  0  0  0  0  0  0  0  0  0  0
    5.6052    2.9363   -0.2303 H   0  0  0  0  0  0  0  0  0  0  0  0
    6.9026    2.4760    0.9168 H   0  0  0  0  0  0  0  0  0  0  0  0
    5.1918    2.7064    1.5085 H   0  0  0  0  0  0  0  0  0  0  0  0
    8.4427    1.7100    2.8502 H   0  0  0  0  0  0  0  0  0  0  0  0
    8.5987    0.0990    3.6944 H   0  0  0  0  0  0  0  0  0  0  0  0
    9.0379    0.3040    1.9230 H   0  0  0  0  0  0  0  0  0  0  0  0
    3.9880   -0.5732    4.9158 H   0  0  0  0  0  0  0  0  0  0  0  0
    4.1295    1.1842    5.0740 H   0  0  0  0  0  0  0  0  0  0  0  0
    1.8760   -1.5596    3.9770 H   0  0  0  0  0  0  0  0  0  0  0  0
   -0.5589   -1.1513    3.4645 H   0  0  0  0  0  0  0  0  0  0  0  0
    0.1740    3.0343    3.5608 H   0  0  0  0  0  0  0  0  0  0  0  0
    2.4895    2.6429    4.0396 H   0  0  0  0  0  0  0  0  0  0  0  0
   -2.1020    1.4364    2.2628 H   0  0  0  0  0  0  0  0  0  0  0  0
   -4.5451    0.9491    4.6637 H   0  0  0  0  0  0  0  0  0  0  0  0
   -3.6279    2.9330    6.1059 H   0  0  0  0  0  0  0  0  0  0  0  0
   -3.4975    3.8556    4.5580 H   0  0  0  0  0  0  0  0  0  0  0  0
   -5.2647    4.6222    5.9468 H   0  0  0  0  0  0  0  0  0  0  0  0
   -5.9545    4.0470    4.4297 H   0  0  0  0  0  0  0  0  0  0  0  0
   -7.3042    3.4490    6.4611 H   0  0  0  0  0  0  0  0  0  0  0  0
   -5.8580    2.7867    7.2335 H   0  0  0  0  0  0  0  0  0  0  0  0
   -6.5318    0.7242    6.2707 H   0  0  0  0  0  0  0  0  0  0  0  0
   -9.0492    0.1608    3.8538 H   0  0  0  0  0  0  0  0  0  0  0  0
   -7.3164   -0.4513    3.9902 H   0  0  0  0  0  0  0  0  0  0  0  0
   -4.1484    3.0286    2.5544 H   0  0  0  0  0  0  0  0  0  0  0  0
   -4.8177    0.7767    0.0169 H   0  0  0  0  0  0  0  0  0  0  0  0
   -6.9678    1.1769   -0.8138 H   0  0  0  0  0  0  0  0  0  0  0  0
   -6.3527   -0.9952    0.0406 H   0  0  0  0  0  0  0  0  0  0  0  0
   -8.0823   -0.6179   -0.0619 H   0  0  0  0  0  0  0  0  0  0  0  0
   -7.2805   -0.6892    1.5891 H   0  0  0  0  0  0  0  0  0  0  0  0
   -8.6085    2.3422    0.1044 H   0  0  0  0  0  0  0  0  0  0  0  0
   -8.5619    1.4733    1.6507 H   0  0  0  0  0  0  0  0  0  0  0  0
   -7.4895    2.8749    1.3476 H   0  0  0  0  0  0  0  0  0  0  0  0
   -5.3836    3.6545    0.8303 H   0  0  0  0  0  0  0  0  0  0  0  0
   -3.4617    4.7563   -1.0822 H   0  0  0  0  0  0  0  0  0  0  0  0
   -5.2083    5.0025   -1.5323 H   0  0  0  0  0  0  0  0  0  0  0  0
   -2.9248    3.6023   -3.0402 H   0  0  0  0  0  0  0  0  0  0  0  0
   -4.5986    3.5470   -3.6015 H   0  0  0  0  0  0  0  0  0  0  0  0
   -2.5416    5.7986   -3.2986 H   0  0  0  0  0  0  0  0  0  0  0  0
   -3.2331    5.1820   -4.8140 H   0  0  0  0  0  0  0  0  0  0  0  0
   -3.9172    7.5124   -4.2260 H   0  0  0  0  0  0  0  0  0  0  0  0
   -4.7060    6.9123   -2.7147 H   0  0  0  0  0  0  0  0  0  0  0  0
   -5.6090    6.3823   -5.6101 H   0  0  0  0  0  0  0  0  0  0  0  0
   -6.2009    7.6027   -4.3920 H   0  0  0  0  0  0  0  0  0  0  0  0
   -8.6148    2.8142   -3.8281 H   0  0  0  0  0  0  0  0  0  0  0  0
   -9.2769    4.6341   -2.0199 H   0  0  0  0  0  0  0  0  0  0  0  0
  1  2  1  0
  2  3  1  0
  3  4  1  0
  3  5  1  0
  5  6  1  0
  6  7  1  0
  7  8  1  0
  8  9  2  0
  8 10  1  0
 10 11  1  0
 11 12  1  0
 12 13  1  0
 13 14  1  0
 14 15  1  0
 15 16  1  0
 16 17  1  0
 16 18  1  0
 18 19  2  0
 18 20  1  0
 20 21  1  0
 21 22  1  0
 21 23  1  0
 23 24  1  0
 24 25  2  0
 25 26  1  0
 26 27  2  0
 27 28  1  0
 28 29  2  0
 23 30  1  0
 15 31  1  0
 31 32  1  0
  6 33  1  0
 33 34  1  0
  5 35  1  0
 35 36  1  0
 35 37  1  0
 37 38  2  0
 37 39  1  0
 39 40  1  0
 40 41  1  0
 40 42  1  0
 39 43  1  0
 43 44  1  0
 44 45  2  0
 44 46  1  0
 46 47  1  0
 47 48  1  0
 47 49  1  0
 46 50  1  0
 50 51  1  0
 50 52  1  0
 52 53  2  0
 52 54  1  0
 54 55  1  0
 55 56  1  0
 56 57  1  0
 57 58  2  0
 58 59  1  0
 59 60  2  0
 60 61  1  0
 59 62  1  0
 62 63  1  0
 63 64  2  0
 63 65  1  0
 65 66  1  0
 66 67  1  0
 67 68  1  0
 68 69  1  0
 69 70  1  0
 70 71  2  0
 70 72  1  0
 65 73  1  0
 73 74  1  0
 74 75  2  0
 74 76  1  0
 76 77  1  0
 77 78  1  0
 77 79  1  0
 76 80  1  0
 80 81  1  0
 81 82  2  0
 81 83  1  0
 83 84  1  0
 84 85  1  0
 85 86  1  0
 86 87  1  0
 87 88  1  0
 88 89  1  0
 89 90  2  0
 89 91  1  0
 91 92  2  0
 92 93  1  0
 93 94  2  0
 14 10  1  0
 29 24  1  0
 61 56  2  0
 93 88  1  0
  1 95  1  0
  1 96  1  0
  1 97  1  0
  2 98  1  0
  2 99  1  0
  3100  1  1
  4101  1  0
  4102  1  0
  4103  1  0
  5104  1  1
  6105  1  1
  7106  1  0
  7107  1  0
 11108  1  0
 11109  1  0
 12110  1  0
 12111  1  0
 13112  1  0
 13113  1  0
 14114  1  1
 15115  1  1
 16116  1  6
 17117  1  0
 17118  1  0
 17119  1  0
 20120  1  0
 21121  1  6
 22122  1  0
 22123  1  0
 22124  1  0
 23125  1  1
 25126  1  0
 26127  1  0
 27128  1  0
 28129  1  0
 29130  1  0
 30131  1  0
 32132  1  0
 32133  1  0
 32134  1  0
 34135  1  0
 34136  1  0
 34137  1  0
 36138  1  0
 36139  1  0
 36140  1  0
 39141  1  1
 40142  1  0
 41143  1  0
 41144  1  0
 41145  1  0
 42146  1  0
 42147  1  0
 42148  1  0
 43149  1  0
 46150  1  6
 47151  1  0
 48152  1  0
 48153  1  0
 48154  1  0
 49155  1  0
 49156  1  0
 49157  1  0
 51158  1  0
 51159  1  0
 51160  1  0
 55161  1  0
 55162  1  0
 57163  1  0
 58164  1  0
 60165  1  0
 61166  1  0
 62167  1  0
 65168  1  1
 66169  1  0
 66170  1  0
 67171  1  0
 67172  1  0
 68173  1  0
 68174  1  0
 69175  1  0
 72176  1  0
 72177  1  0
 73178  1  0
 76179  1  6
 77180  1  0
 78181  1  0
 78182  1  0
 78183  1  0
 79184  1  0
 79185  1  0
 79186  1  0
 80187  1  0
 83188  1  0
 83189  1  0
 84190  1  0
 84191  1  0
 85192  1  0
 85193  1  0
 86194  1  0
 86195  1  0
 87196  1  0
 87197  1  0
 91198  1  0
 92199  1  0
M  END
$$$$

     RDKit          3D

199202  0  0  0  0  0  0  0  0999 V2000
   -0.6542    5.5617   -5.7354 C   0  0  0  0  0  0  0  0  0  0  0  0
   -0.9900    6.1919   -4.3657 C   0  0  0  0  0  0  0  0  0  0  0  0
   -0.4277    5.2733   -3.3533 C   0  0  2  0  0  0  0  0  0  0  0  0
   -1.0639    3.8927   -3.5033 C   0  0  0  0  0  0  0  0  0  0  0  0
   -0.3695    5.7149   -1.9417 C   0  0  1  0  0  0  0  0  0  0  0  0
    0.4651    6.9306   -1.6468 C   0  0  1  0  0  0  0  0  0  0  0  0
    1.0916    6.7793   -0.2017 C   0  0  0  0  0  0  0  0  0  0  0  0
    1.9657    5.5882   -0.2012 C   0  0  0  0  0  0  0  0  0  0  0  0
    2.3229    5.1315   -1.3391 O   0  0  0  0  0  0  0  0  0  0  0  0
    2.4266    4.9160    0.9497 N   0  0  0  0  0  0  0  0  0  0  0  0
    2.1916    5.2582    2.3742 C   0  0  0  0  0  0  0  0  0  0  0  0
    1.9771    3.8852    3.0464 C   0  0  0  0  0  0  0  0  0  0  0  0
    2.1916    2.8725    1.8964 C   0  0  0  0  0  0  0  0  0  0  0  0
    3.1596    3.6558    1.0699 C   0  0  1  0  0  0  0  0  0  0  0  0
    3.6102    3.0558   -0.2100 C   0  0  1  0  0  0  0  0  0  0  0  0
    4.9104    3.7452   -0.6055 C   0  0  1  0  0  0  0  0  0  0  0  0
    6.0103    3.4673    0.4331 C   0  0  0  0  0  0  0  0  0  0  0  0
    5.3685    3.5356   -1.9555 C   0  0  0  0  0  0  0  0  0  0  0  0
    5.5098    4.5762   -2.7058 O   0  0  0  0  0  0  0  0  0  0  0  0
    5.6951    2.3106   -2.5945 N   0  0  0  0  0  0  0  0  0  0  0  0
    6.1318    2.4157   -3.9838 C   0  0  2  0  0  0  0  0  0  0  0  0
    4.8997    2.5252   -4.8958 C   0  0  0  0  0  0  0  0  0  0  0  0
    6.9572    1.2860   -4.4734 C   0  0  1  0  0  0  0  0  0  0  0  0
    6.2104   -0.0225   -4.5222 C   0  0  0  0  0  0  0  0  0  0  0  0
    5.3788   -0.3256   -5.5932 C   0  0  0  0  0  0  0  0  0  0  0  0
    4.6736   -1.5169   -5.6774 C   0  0  0  0  0  0  0  0  0  0  0  0
    4.8022   -2.4521   -4.6415 C   0  0  0  0  0  0  0  0  0  0  0  0
    5.6356   -2.1284   -3.5851 C   0  0  0  0  0  0  0  0  0  0  0  0
    6.3359   -0.9542   -3.4958 C   0  0  0  0  0  0  0  0  0  0  0  0
    7.3597    1.4870   -5.8174 O   0  0  0  0  0  0  0  0  0  0  0  0
    4.1095    1.7533    0.2139 O   0  0  0  0  0  0  0  0  0  0  0  0
    3.3526    0.7824   -0.4496 C   0  0  0  0  0  0  0  0  0  0  0  0
    1.6628    6.8592   -2.4179 O   0  0  0  0  0  0  0  0  0  0  0  0
    2.0179    8.0849   -2.9096 C   0  0  0  0  0  0  0  0  0  0  0  0
   -1.7039    5.7517   -1.2739 N   0  0  0  0  0  0  0  0  0  0  0  0
   -2.7276    6.6717   -1.7504 C   0  0  0  0  0  0  0  0  0  0  0  0
   -1.8529    4.8775   -0.2155 C   0  0  0  0  0  0  0  0  0  0  0  0
   -0.8086    4.1898    0.1189 O   0  0  0  0  0  0  0  0  0  0  0  0
   -3.0452    4.5929    0.6226 C   0  0  1  0  0  0  0  0  0  0  0  0
   -3.9367    3.6794   -0.2407 C   0  0  0  0  0  0  0  0  0  0  0  0
   -5.2656    3.3588    0.3911 C   0  0  0  0  0  0  0  0  0  0  0  0
   -3.2116    2.4220   -0.6816 C   0  0  0  0  0  0  0  0  0  0  0  0
   -2.5275    3.9840    1.8008 N   0  0  0  0  0  0  0  0  0  0  0  0
   -3.0892    3.4240    2.9489 C   0  0  0  0  0  0  0  0  0  0  0  0
   -4.3102    3.3542    3.0610 O   0  0  0  0  0  0  0  0  0  0  0  0
   -2.1195    2.9341    3.9958 C   0  0  1  0  0  0  0  0  0  0  0  0
   -1.7712    4.2132    4.7577 C   0  0  0  0  0  0  0  0  0  0  0  0
   -2.9917    4.8816    5.3599 C   0  0  0  0  0  0  0  0  0  0  0  0
   -0.8168    3.9386    5.8880 C   0  0  0  0  0  0  0  0  0  0  0  0
   -2.3678    1.7888    4.7230 N   0  0  0  0  0  0  0  0  0  0  0  0
   -1.3452    0.6853    4.5196 C   0  0  0  0  0  0  0  0  0  0  0  0
   -3.4190    1.4491    5.6334 C   0  0  0  0  0  0  0  0  0  0  0  0
   -4.3497    2.2974    5.8564 O   0  0  0  0  0  0  0  0  0  0  0  0
   -3.4442    0.3068    6.2397 O   0  0  0  0  0  0  0  0  0  0  0  0
   -3.8907   -0.6618    7.0755 C   0  0  0  0  0  0  0  0  0  0  0  0
   -2.9116   -1.8423    6.8490 C   0  0  0  0  0  0  0  0  0  0  0  0
   -1.6597   -1.7843    7.4218 C   0  0  0  0  0  0  0  0  0  0  0  0
   -0.7231   -2.7842    7.1883 C   0  0  0  0  0  0  0  0  0  0  0  0
   -1.1032   -3.8253    6.3679 C   0  0  0  0  0  0  0  0  0  0  0  0
   -2.3634   -3.8840    5.7947 C   0  0  0  0  0  0  0  0  0  0  0  0
   -3.2916   -2.8820    6.0332 C   0  0  0  0  0  0  0  0  0  0  0  0
   -0.1942   -4.8722    5.9752 N   0  0  0  0  0  0  0  0  0  0  0  0
    0.3389   -4.7547    4.6656 C   0  0  0  0  0  0  0  0  0  0  0  0
   -0.0410   -3.7661    3.9658 O   0  0  0  0  0  0  0  0  0  0  0  0
    1.2950   -5.6870    4.0430 C   0  0  1  0  0  0  0  0  0  0  0  0
    0.8630   -7.0944    4.3293 C   0  0  0  0  0  0  0  0  0  0  0  0
    1.7883   -8.1190    3.7353 C   0  0  0  0  0  0  0  0  0  0  0  0
    3.2045   -8.0084    4.2637 C   0  0  0  0  0  0  0  0  0  0  0  0
    3.2362   -8.2056    5.6969 N   0  0  0  0  0  0  0  0  0  0  0  0
    4.5322   -8.1211    6.3208 C   0  0  0  0  0  0  0  0  0  0  0  0
    5.5174   -7.8947    5.5724 O   0  0  0  0  0  0  0  0  0  0  0  0
    4.6873   -8.2903    7.7316 N   0  0  0  0  0  0  0  0  0  0  0  0
    1.3255   -5.3878    2.6400 N   0  0  0  0  0  0  0  0  0  0  0  0
    2.4234   -5.0308    1.8379 C   0  0  0  0  0  0  0  0  0  0  0  0
    3.6093   -4.9111    2.3187 O   0  0  0  0  0  0  0  0  0  0  0  0
    2.2745   -4.7812    0.4051 C   0  0  1  0  0  0  0  0  0  0  0  0
    3.2163   -5.6074   -0.4436 C   0  0  0  0  0  0  0  0  0  0  0  0
    4.6562   -5.3268   -0.1089 C   0  0  0  0  0  0  0  0  0  0  0  0
    2.9223   -7.0695   -0.4495 C   0  0  0  0  0  0  0  0  0  0  0  0
    0.8967   -4.9199   -0.0104 N   0  0  0  0  0  0  0  0  0  0  0  0
    0.2484   -3.8999   -0.7935 C   0  0  0  0  0  0  0  0  0  0  0  0
    0.9343   -2.9158   -1.1083 O   0  0  0  0  0  0  0  0  0  0  0  0
   -1.1767   -4.0881   -1.1697 C   0  0  0  0  0  0  0  0  0  0  0  0
   -1.5712   -3.0514   -2.2102 C   0  0  0  0  0  0  0  0  0  0  0  0
   -3.0187   -3.1467   -2.5714 C   0  0  0  0  0  0  0  0  0  0  0  0
   -3.4273   -4.4827   -3.1058 C   0  0  0  0  0  0  0  0  0  0  0  0
   -2.7864   -4.9335   -4.3651 C   0  0  0  0  0  0  0  0  0  0  0  0
   -3.0311   -4.1012   -5.5109 N   0  0  0  0  0  0  0  0  0  0  0  0
   -2.3100   -3.0055   -6.0553 C   0  0  0  0  0  0  0  0  0  0  0  0
   -1.2397   -2.5187   -5.6406 O   0  0  0  0  0  0  0  0  0  0  0  0
   -3.0296   -2.5156   -7.2220 C   0  0  0  0  0  0  0  0  0  0  0  0
   -4.1408   -3.2377   -7.4258 C   0  0  0  0  0  0  0  0  0  0  0  0
   -4.1731   -4.2399   -6.3689 C   0  0  0  0  0  0  0  0  0  0  0  0
   -5.1115   -5.0940   -6.2756 O   0  0  0  0  0  0  0  0  0  0  0  0
   -1.3059    4.6917   -5.9458 H   0  0  0  0  0  0  0  0  0  0  0  0
   -0.8532    6.3058   -6.5702 H   0  0  0  0  0  0  0  0  0  0  0  0
    0.4219    5.3290   -5.8111 H   0  0  0  0  0  0  0  0  0  0  0  0
   -2.0906    6.2521   -4.3718 H   0  0  0  0  0  0  0  0  0  0  0  0
   -0.4999    7.1715   -4.3655 H   0  0  0  0  0  0  0  0  0  0  0  0
    0.6572    5.0993   -3.6534 H   0  0  0  0  0  0  0  0  0  0  0  0
   -0.4295    3.2050   -4.1217 H   0  0  0  0  0  0  0  0  0  0  0  0
   -1.1849    3.3941   -2.5225 H   0  0  0  0  0  0  0  0  0  0  0  0
   -2.0464    3.9502   -4.0070 H   0  0  0  0  0  0  0  0  0  0  0  0
    0.2038    4.8742   -1.4079 H   0  0  0  0  0  0  0  0  0  0  0  0
    0.0194    7.8888   -1.6285 H   0  0  0  0  0  0  0  0  0  0  0  0
    0.2170    6.6676    0.4559 H   0  0  0  0  0  0  0  0  0  0  0  0
    1.5781    7.7151    0.0662 H   0  0  0  0  0  0  0  0  0  0  0  0
    1.2769    5.8229    2.5269 H   0  0  0  0  0  0  0  0  0  0  0  0
    3.0775    5.7312    2.8192 H   0  0  0  0  0  0  0  0  0  0  0  0
    0.9679    3.7896    3.4142 H   0  0  0  0  0  0  0  0  0  0  0  0
    2.7076    3.7241    3.8437 H   0  0  0  0  0  0  0  0  0  0  0  0
    2.5876    1.9239    2.2795 H   0  0  0  0  0  0  0  0  0  0  0  0
    1.1823    2.7723    1.4266 H   0  0  0  0  0  0  0  0  0  0  0  0
    4.0580    3.8101    1.7211 H   0  0  0  0  0  0  0  0  0  0  0  0
    2.8670    2.9150   -0.9524 H   0  0  0  0  0  0  0  0  0  0  0  0
    4.7598    4.8733   -0.4708 H   0  0  0  0  0  0  0  0  0  0  0  0
    5.9641    4.2554    1.2040 H   0  0  0  0  0  0  0  0  0  0  0  0
    5.7621    2.5007    0.9350 H   0  0  0  0  0  0  0  0  0  0  0  0
    6.9895    3.4463   -0.0932 H   0  0  0  0  0  0  0  0  0  0  0  0
    5.6165    1.4469   -2.0625 H   0  0  0  0  0  0  0  0  0  0  0  0
    6.6287    3.4059   -4.1376 H   0  0  0  0  0  0  0  0  0  0  0  0
    4.4339    3.4967   -4.6038 H   0  0  0  0  0  0  0  0  0  0  0  0
    5.2590    2.6753   -5.9209 H   0  0  0  0  0  0  0  0  0  0  0  0
    4.2349    1.6767   -4.7349 H   0  0  0  0  0  0  0  0  0  0  0  0
    7.9129    1.1534   -3.9190 H   0  0  0  0  0  0  0  0  0  0  0  0
    5.2453    0.3586   -6.4325 H   0  0  0  0  0  0  0  0  0  0  0  0
    4.0387   -1.7079   -6.5357 H   0  0  0  0  0  0  0  0  0  0  0  0
    4.2602   -3.3936   -4.6849 H   0  0  0  0  0  0  0  0  0  0  0  0
    5.7037   -2.8929   -2.8042 H   0  0  0  0  0  0  0  0  0  0  0  0
    6.9766   -0.7702   -2.6243 H   0  0  0  0  0  0  0  0  0  0  0  0
    8.0724    0.8257   -6.0097 H   0  0  0  0  0  0  0  0  0  0  0  0
    3.7448   -0.1974   -0.1429 H   0  0  0  0  0  0  0  0  0  0  0  0
    3.3625    0.9913   -1.5115 H   0  0  0  0  0  0  0  0  0  0  0  0
    2.2934    0.7938   -0.1019 H   0  0  0  0  0  0  0  0  0  0  0  0
    1.2247    8.4925   -3.5489 H   0  0  0  0  0  0  0  0  0  0  0  0
    2.2976    8.8107   -2.1031 H   0  0  0  0  0  0  0  0  0  0  0  0
    2.9234    7.9596   -3.5651 H   0  0  0  0  0  0  0  0  0  0  0  0
   -3.4907    6.2038   -2.3918 H   0  0  0  0  0  0  0  0  0  0  0  0
   -3.2919    7.1133   -0.8765 H   0  0  0  0  0  0  0  0  0  0  0  0
   -2.2999    7.5074   -2.3223 H   0  0  0  0  0  0  0  0  0  0  0  0
   -3.6699    5.4695    0.7592 H   0  0  0  0  0  0  0  0  0  0  0  0
   -4.1475    4.2640   -1.1599 H   0  0  0  0  0  0  0  0  0  0  0  0
   -5.6337    4.1754    1.0780 H   0  0  0  0  0  0  0  0  0  0  0  0
   -6.0923    3.4235   -0.4206 H   0  0  0  0  0  0  0  0  0  0  0  0
   -5.3857    2.3385    0.7673 H   0  0  0  0  0  0  0  0  0  0  0  0
   -3.3033    2.2416   -1.7907 H   0  0  0  0  0  0  0  0  0  0  0  0
   -2.1239    2.4699   -0.5122 H   0  0  0  0  0  0  0  0  0  0  0  0
   -3.6937    1.5043   -0.2304 H   0  0  0  0  0  0  0  0  0  0  0  0
   -1.4262    3.9637    1.8183 H   0  0  0  0  0  0  0  0  0  0  0  0
   -1.1160    2.7317    3.4420 H   0  0  0  0  0  0  0  0  0  0  0  0
   -1.2644    4.8774    4.0374 H   0  0  0  0  0  0  0  0  0  0  0  0
   -3.0872    4.6571    6.4171 H   0  0  0  0  0  0  0  0  0  0  0  0
   -2.7622    5.9953    5.2672 H   0  0  0  0  0  0  0  0  0  0  0  0
   -3.9185    4.7525    4.8136 H   0  0  0  0  0  0  0  0  0  0  0  0
    0.2196    4.2335    5.6038 H   0  0  0  0  0  0  0  0  0  0  0  0
   -1.1185    4.6114    6.7534 H   0  0  0  0  0  0  0  0  0  0  0  0
   -0.8787    2.8796    6.1596 H   0  0  0  0  0  0  0  0  0  0  0  0
   -0.4973    1.0747    3.9226 H   0  0  0  0  0  0  0  0  0  0  0  0
   -1.8797   -0.0555    3.8941 H   0  0  0  0  0  0  0  0  0  0  0  0
   -1.1131    0.3268    5.5221 H   0  0  0  0  0  0  0  0  0  0  0  0
   -3.7697   -0.4120    8.1703 H   0  0  0  0  0  0  0  0  0  0  0  0
   -4.8733   -1.0988    6.9377 H   0  0  0  0  0  0  0  0  0  0  0  0
   -1.3721   -0.9470    8.0825 H   0  0  0  0  0  0  0  0  0  0  0  0
    0.2664   -2.7463    7.6280 H   0  0  0  0  0  0  0  0  0  0  0  0
   -2.6726   -4.6959    5.1548 H   0  0  0  0  0  0  0  0  0  0  0  0
   -4.2740   -2.8874    5.6122 H   0  0  0  0  0  0  0  0  0  0  0  0
    0.0637   -5.6662    6.5780 H   0  0  0  0  0  0  0  0  0  0  0  0
    2.3261   -5.5773    4.4392 H   0  0  0  0  0  0  0  0  0  0  0  0
   -0.1424   -7.3219    3.9291 H   0  0  0  0  0  0  0  0  0  0  0  0
    0.8192   -7.2728    5.4007 H   0  0  0  0  0  0  0  0  0  0  0  0
    1.7737   -8.1305    2.6281 H   0  0  0  0  0  0  0  0  0  0  0  0
    1.4335   -9.1200    4.0531 H   0  0  0  0  0  0  0  0  0  0  0  0
    3.6817   -7.0228    4.0495 H   0  0  0  0  0  0  0  0  0  0  0  0
    3.8518   -8.7820    3.8102 H   0  0  0  0  0  0  0  0  0  0  0  0
    2.3708   -8.4001    6.2518 H   0  0  0  0  0  0  0  0  0  0  0  0
    5.5670   -8.7138    8.1399 H   0  0  0  0  0  0  0  0  0  0  0  0
    3.9535   -7.9992    8.4286 H   0  0  0  0  0  0  0  0  0  0  0  0
    0.3890   -5.4500    2.1501 H   0  0  0  0  0  0  0  0  0  0  0  0
    2.5673   -3.7246    0.1945 H   0  0  0  0  0  0  0  0  0  0  0  0
    3.0599   -5.2398   -1.4937 H   0  0  0  0  0  0  0  0  0  0  0  0
    5.2555   -5.3677   -1.0406 H   0  0  0  0  0  0  0  0  0  0  0  0
    5.0335   -5.9715    0.7057 H   0  0  0  0  0  0  0  0  0  0  0  0
    4.7541   -4.2778    0.2745 H   0  0  0  0  0  0  0  0  0  0  0  0
    3.0120   -7.5329   -1.4742 H   0  0  0  0  0  0  0  0  0  0  0  0
    3.7081   -7.5942    0.1632 H   0  0  0  0  0  0  0  0  0  0  0  0
    1.9370   -7.3438   -0.0827 H   0  0  0  0  0  0  0  0  0  0  0  0
    0.2935   -5.7498    0.2093 H   0  0  0  0  0  0  0  0  0  0  0  0
   -1.7527   -3.9468   -0.2408 H   0  0  0  0  0  0  0  0  0  0  0  0
   -1.3808   -5.1185   -1.5257 H   0  0  0  0  0  0  0  0  0  0  0  0
   -1.2455   -2.0681   -1.8294 H   0  0  0  0  0  0  0  0  0  0  0  0
   -0.9274   -3.2682   -3.0879 H   0  0  0  0  0  0  0  0  0  0  0  0
   -3.6895   -2.8567   -1.7374 H   0  0  0  0  0  0  0  0  0  0  0  0
   -3.1860   -2.4130   -3.4189 H   0  0  0  0  0  0  0  0  0  0  0  0
   -3.3089   -5.2995   -2.3411 H   0  0  0  0  0  0  0  0  0  0  0  0
   -4.5367   -4.4279   -3.3267 H   0  0  0  0  0  0  0  0  0  0  0  0
   -1.6921   -5.1467   -4.2473 H   0  0  0  0  0  0  0  0  0  0  0  0
   -3.2128   -5.9461   -4.6201 H   0  0  0  0  0  0  0  0  0  0  0  0
   -2.7225   -1.6758   -7.8609 H   0  0  0  0  0  0  0  0  0  0  0  0
   -4.8637   -3.1040   -8.2127 H   0  0  0  0  0  0  0  0  0  0  0  0
  1  2  1  0
  2  3  1  0
  3  4  1  0
  3  5  1  0
  5  6  1  0
  6  7  1  0
  7  8  1  0
  8  9  2  0
  8 10  1  0
 10 11  1  0
 11 12  1  0
 12 13  1  0
 13 14  1  0
 14 15  1  0
 15 16  1  0
 16 17  1  0
 16 18  1  0
 18 19  2  0
 18 20  1  0
 20 21  1  0
 21 22  1  0
 21 23  1  0
 23 24  1  0
 24 25  2  0
 25 26  1  0
 26 27  2  0
 27 28  1  0
 28 29  2  0
 23 30  1  0
 15 31  1  0
 31 32  1  0
  6 33  1  0
 33 34  1  0
  5 35  1  0
 35 36  1  0
 35 37  1  0
 37 38  2  0
 37 39  1  0
 39 40  1  0
 40 41  1  0
 40 42  1  0
 39 43  1  0
 43 44  1  0
 44 45  2  0
 44 46  1  0
 46 47  1  0
 47 48  1  0
 47 49  1  0
 46 50  1  0
 50 51  1  0
 50 52  1  0
 52 53  2  0
 52 54  1  0
 54 55  1  0
 55 56  1  0
 56 57  1  0
 57 58  2  0
 58 59  1  0
 59 60  2  0
 60 61  1  0
 59 62  1  0
 62 63  1  0
 63 64  2  0
 63 65  1  0
 65 66  1  0
 66 67  1  0
 67 68  1  0
 68 69  1  0
 69 70  1  0
 70 71  2  0
 70 72  1  0
 65 73  1  0
 73 74  1  0
 74 75  2  0
 74 76  1  0
 76 77  1  0
 77 78  1  0
 77 79  1  0
 76 80  1  0
 80 81  1  0
 81 82  2  0
 81 83  1  0
 83 84  1  0
 84 85  1  0
 85 86  1  0
 86 87  1  0
 87 88  1  0
 88 89  1  0
 89 90  2  0
 89 91  1  0
 91 92  2  0
 92 93  1  0
 93 94  2  0
 14 10  1  0
 29 24  1  0
 61 56  2  0
 93 88  1  0
  1 95  1  0
  1 96  1  0
  1 97  1  0
  2 98  1  0
  2 99  1  0
  3100  1  6
  4101  1  0
  4102  1  0
  4103  1  0
  5104  1  1
  6105  1  1
  7106  1  0
  7107  1  0
 11108  1  0
 11109  1  0
 12110  1  0
 12111  1  0
 13112  1  0
 13113  1  0
 14114  1  1
 15115  1  6
 16116  1  6
 17117  1  0
 17118  1  0
 17119  1  0
 20120  1  0
 21121  1  1
 22122  1  0
 22123  1  0
 22124  1  0
 23125  1  1
 25126  1  0
 26127  1  0
 27128  1  0
 28129  1  0
 29130  1  0
 30131  1  0
 32132  1  0
 32133  1  0
 32134  1  0
 34135  1  0
 34136  1  0
 34137  1  0
 36138  1  0
 36139  1  0
 36140  1  0
 39141  1  1
 40142  1  0
 41143  1  0
 41144  1  0
 41145  1  0
 42146  1  0
 42147  1  0
 42148  1  0
 43149  1  0
 46150  1  6
 47151  1  0
 48152  1  0
 48153  1  0
 48154  1  0
 49155  1  0
 49156  1  0
 49157  1  0
 51158  1  0
 51159  1  0
 51160  1  0
 55161  1  0
 55162  1  0
 57163  1  0
 58164  1  0
 60165  1  0
 61166  1  0
 62167  1  0
 65168  1  1
 66169  1  0
 66170  1  0
 67171  1  0
 67172  1  0
 68173  1  0
 68174  1  0
 69175  1  0
 72176  1  0
 72177  1  0
 73178  1  0
 76179  1  1
 77180  1  0
 78181  1  0
 78182  1  0
 78183  1  0
 79184  1  0
 79185  1  0
 79186  1  0
 80187  1  0
 83188  1  0
 83189  1  0
 84190  1  0
 84191  1  0
 85192  1  0
 85193  1  0
 86194  1  0
 86195  1  0
 87196  1  0
 87197  1  0
 91198  1  0
 92199  1  0
M  END
$$$$

     RDKit          3D

199202  0  0  0  0  0  0  0  0999 V2000
    2.1493   -7.3298   -0.9598 C   0  0  0  0  0  0  0  0  0  0  0  0
    1.2980   -6.1557   -0.4323 C   0  0  0  0  0  0  0  0  0  0  0  0
    1.4989   -6.0107    1.0641 C   0  0  2  0  0  0  0  0  0  0  0  0
    1.0369   -7.3112    1.6704 C   0  0  0  0  0  0  0  0  0  0  0  0
    0.9662   -4.7788    1.6438 C   0  0  1  0  0  0  0  0  0  0  0  0
   -0.5096   -4.4972    1.5556 C   0  0  1  0  0  0  0  0  0  0  0  0
   -0.6819   -2.9799    1.5435 C   0  0  0  0  0  0  0  0  0  0  0  0
   -2.0312   -2.4654    1.4390 C   0  0  0  0  0  0  0  0  0  0  0  0
   -2.5711   -2.2936    0.3046 O   0  0  0  0  0  0  0  0  0  0  0  0
   -2.7509   -2.1434    2.6184 N   0  0  0  0  0  0  0  0  0  0  0  0
   -2.3469   -2.3718    3.9805 C   0  0  0  0  0  0  0  0  0  0  0  0
   -3.6224   -2.4211    4.7538 C   0  0  0  0  0  0  0  0  0  0  0  0
   -4.7129   -2.1053    3.7209 C   0  0  0  0  0  0  0  0  0  0  0  0
   -4.0639   -1.4142    2.6221 C   0  0  1  0  0  0  0  0  0  0  0  0
   -3.7191   -0.0164    2.5767 C   0  0  1  0  0  0  0  0  0  0  0  0
   -4.7263    1.0742    2.4934 C   0  0  1  0  0  0  0  0  0  0  0  0
   -5.6217    0.9936    1.3054 C   0  0  0  0  0  0  0  0  0  0  0  0
   -5.3389    1.4694    3.7673 C   0  0  0  0  0  0  0  0  0  0  0  0
   -5.2656    0.8089    4.8415 O   0  0  0  0  0  0  0  0  0  0  0  0
   -6.0711    2.6875    3.8385 N   0  0  0  0  0  0  0  0  0  0  0  0
   -6.6606    3.0322    5.1060 C   0  0  2  0  0  0  0  0  0  0  0  0
   -8.0018    3.6874    4.9238 C   0  0  0  0  0  0  0  0  0  0  0  0
   -5.8485    3.7488    6.0870 C   0  0  1  0  0  0  0  0  0  0  0  0
   -5.2546    5.0335    5.8209 C   0  0  0  0  0  0  0  0  0  0  0  0
   -5.2832    5.7656    4.6653 C   0  0  0  0  0  0  0  0  0  0  0  0
   -4.6503    6.9894    4.5381 C   0  0  0  0  0  0  0  0  0  0  0  0
   -3.9455    7.5455    5.5857 C   0  0  0  0  0  0  0  0  0  0  0  0
   -3.9021    6.8161    6.7793 C   0  0  0  0  0  0  0  0  0  0  0  0
   -4.5318    5.6159    6.8845 C   0  0  0  0  0  0  0  0  0  0  0  0
   -6.6433    3.9217    7.2556 O   0  0  0  0  0  0  0  0  0  0  0  0
   -2.8782    0.3955    3.6627 O   0  0  0  0  0  0  0  0  0  0  0  0
   -1.6792    0.8555    3.0805 C   0  0  0  0  0  0  0  0  0  0  0  0
   -1.0072   -4.9228    0.3396 O   0  0  0  0  0  0  0  0  0  0  0  0
   -2.1171   -5.7533    0.6508 C   0  0  0  0  0  0  0  0  0  0  0  0
    1.5346   -4.3976    2.9491 N   0  0  0  0  0  0  0  0  0  0  0  0
    1.2702   -5.3091    4.0487 C   0  0  0  0  0  0  0  0  0  0  0  0
    2.2833   -3.1973    3.0964 C   0  0  0  0  0  0  0  0  0  0  0  0
    2.3707   -2.4589    2.0465 O   0  0  0  0  0  0  0  0  0  0  0  0
    2.9449   -2.7107    4.2917 C   0  0  1  0  0  0  0  0  0  0  0  0
    4.3895   -3.2265    4.3835 C   0  0  0  0  0  0  0  0  0  0  0  0
    5.1791   -2.7434    3.1776 C   0  0  0  0  0  0  0  0  0  0  0  0
    4.4669   -4.7304    4.3454 C   0  0  0  0  0  0  0  0  0  0  0  0
    3.0388   -1.2191    4.2492 N   0  0  0  0  0  0  0  0  0  0  0  0
    2.7854   -0.4943    5.4847 C   0  0  0  0  0  0  0  0  0  0  0  0
    2.5292   -1.1646    6.5062 O   0  0  0  0  0  0  0  0  0  0  0  0
    2.8314    1.0162    5.4909 C   0  0  1  0  0  0  0  0  0  0  0  0
    3.7573    1.5796    6.4884 C   0  0  0  0  0  0  0  0  0  0  0  0
    5.1937    1.2128    6.4218 C   0  0  0  0  0  0  0  0  0  0  0  0
    3.2048    1.4183    7.9194 C   0  0  0  0  0  0  0  0  0  0  0  0
    2.8906    1.6014    4.2105 N   0  0  0  0  0  0  0  0  0  0  0  0
    1.7152    2.4141    3.7981 C   0  0  0  0  0  0  0  0  0  0  0  0
    3.9570    1.5248    3.2663 C   0  0  0  0  0  0  0  0  0  0  0  0
    5.0743    1.0211    3.4898 O   0  0  0  0  0  0  0  0  0  0  0  0
    3.7216    2.0346    2.0162 O   0  0  0  0  0  0  0  0  0  0  0  0
    4.5709    2.0840    0.8989 C   0  0  0  0  0  0  0  0  0  0  0  0
    3.7517    2.5868   -0.2733 C   0  0  0  0  0  0  0  0  0  0  0  0
    3.7768    3.8285   -0.7913 C   0  0  0  0  0  0  0  0  0  0  0  0
    2.8889    4.1585   -1.8379 C   0  0  0  0  0  0  0  0  0  0  0  0
    2.0203    3.2326   -2.3124 C   0  0  0  0  0  0  0  0  0  0  0  0
    2.0273    1.9435   -1.7429 C   0  0  0  0  0  0  0  0  0  0  0  0
    2.8659    1.5757   -0.7319 C   0  0  0  0  0  0  0  0  0  0  0  0
    1.0601    3.3629   -3.3417 N   0  0  0  0  0  0  0  0  0  0  0  0
    1.2960    2.9781   -4.6975 C   0  0  0  0  0  0  0  0  0  0  0  0
    2.4077    2.5340   -5.0831 O   0  0  0  0  0  0  0  0  0  0  0  0
    0.1266    3.1180   -5.6161 C   0  0  1  0  0  0  0  0  0  0  0  0
   -0.4695    4.4429   -5.7532 C   0  0  0  0  0  0  0  0  0  0  0  0
   -1.6516    4.3399   -6.7240 C   0  0  0  0  0  0  0  0  0  0  0  0
   -2.3439    5.6554   -6.9330 C   0  0  0  0  0  0  0  0  0  0  0  0
   -3.4562    5.4896   -7.8765 N   0  0  0  0  0  0  0  0  0  0  0  0
   -4.2981    6.5390   -8.2778 C   0  0  0  0  0  0  0  0  0  0  0  0
   -4.1275    7.7050   -7.8312 O   0  0  0  0  0  0  0  0  0  0  0  0
   -5.3625    6.3287   -9.1913 N   0  0  0  0  0  0  0  0  0  0  0  0
    0.4166    2.4955   -6.9124 N   0  0  0  0  0  0  0  0  0  0  0  0
    0.7050    1.1182   -6.8470 C   0  0  0  0  0  0  0  0  0  0  0  0
    0.7148    0.6165   -5.6789 O   0  0  0  0  0  0  0  0  0  0  0  0
    0.9923    0.1823   -7.9519 C   0  0  1  0  0  0  0  0  0  0  0  0
    2.0817    0.6156   -8.8301 C   0  0  0  0  0  0  0  0  0  0  0  0
    1.9118    1.8973   -9.5723 C   0  0  0  0  0  0  0  0  0  0  0  0
    2.4358   -0.5287   -9.7727 C   0  0  0  0  0  0  0  0  0  0  0  0
    1.4207   -1.0665   -7.2885 N   0  0  0  0  0  0  0  0  0  0  0  0
    0.6024   -1.8435   -6.4656 C   0  0  0  0  0  0  0  0  0  0  0  0
   -0.6079   -1.5045   -6.2149 O   0  0  0  0  0  0  0  0  0  0  0  0
    1.0754   -3.1152   -5.8135 C   0  0  0  0  0  0  0  0  0  0  0  0
    0.5801   -3.2693   -4.4269 C   0  0  0  0  0  0  0  0  0  0  0  0
    0.9473   -2.2565   -3.4225 C   0  0  0  0  0  0  0  0  0  0  0  0
    2.3459   -2.0485   -3.0148 C   0  0  0  0  0  0  0  0  0  0  0  0
    3.2886   -1.6987   -4.1025 C   0  0  0  0  0  0  0  0  0  0  0  0
    4.6595   -1.4347   -3.6042 N   0  0  0  0  0  0  0  0  0  0  0  0
    5.2201   -0.1877   -3.2246 C   0  0  0  0  0  0  0  0  0  0  0  0
    4.6417    0.9063   -3.2720 O   0  0  0  0  0  0  0  0  0  0  0  0
    6.6015   -0.3957   -2.7695 C   0  0  0  0  0  0  0  0  0  0  0  0
    6.8530   -1.7008   -2.8759 C   0  0  0  0  0  0  0  0  0  0  0  0
    5.6966   -2.3842   -3.3811 C   0  0  0  0  0  0  0  0  0  0  0  0
    5.6394   -3.6269   -3.5860 O   0  0  0  0  0  0  0  0  0  0  0  0
    2.9283   -7.5047   -0.1788 H   0  0  0  0  0  0  0  0  0  0  0  0
    1.5453   -8.2443   -1.0840 H   0  0  0  0  0  0  0  0  0  0  0  0
    2.6464   -6.9949   -1.8886 H   0  0  0  0  0  0  0  0  0  0  0  0
    1.5385   -5.2172   -0.9743 H   0  0  0  0  0  0  0  0  0  0  0  0
    0.2720   -6.4328   -0.7298 H   0  0  0  0  0  0  0  0  0  0  0  0
    2.6436   -5.9455    1.1563 H   0  0  0  0  0  0  0  0  0  0  0  0
    0.2669   -7.2223    2.4331 H   0  0  0  0  0  0  0  0  0  0  0  0
    1.9150   -7.8283    2.1226 H   0  0  0  0  0  0  0  0  0  0  0  0
    0.6343   -8.0097    0.9004 H   0  0  0  0  0  0  0  0  0  0  0  0
    1.3832   -3.9350    0.9473 H   0  0  0  0  0  0  0  0  0  0  0  0
   -1.1191   -4.9579    2.3532 H   0  0  0  0  0  0  0  0  0  0  0  0
   -0.2532   -2.5589    2.5020 H   0  0  0  0  0  0  0  0  0  0  0  0
    0.0007   -2.6258    0.7388 H   0  0  0  0  0  0  0  0  0  0  0  0
   -1.6014   -1.6699    4.3842 H   0  0  0  0  0  0  0  0  0  0  0  0
   -1.8617   -3.3733    4.1141 H   0  0  0  0  0  0  0  0  0  0  0  0
   -3.8009   -3.3880    5.2607 H   0  0  0  0  0  0  0  0  0  0  0  0
   -3.6039   -1.6581    5.5423 H   0  0  0  0  0  0  0  0  0  0  0  0
   -5.6056   -1.7377    4.1917 H   0  0  0  0  0  0  0  0  0  0  0  0
   -5.0062   -3.1562    3.3633 H   0  0  0  0  0  0  0  0  0  0  0  0
   -4.5952   -1.6976    1.6658 H   0  0  0  0  0  0  0  0  0  0  0  0
   -3.0413    0.1519    1.6841 H   0  0  0  0  0  0  0  0  0  0  0  0
   -4.0782    2.0032    2.2592 H   0  0  0  0  0  0  0  0  0  0  0  0
   -6.0592   -0.0161    1.1394 H   0  0  0  0  0  0  0  0  0  0  0  0
   -6.3963    1.7677    1.3348 H   0  0  0  0  0  0  0  0  0  0  0  0
   -5.0191    1.1812    0.3790 H   0  0  0  0  0  0  0  0  0  0  0  0
   -6.1436    3.2538    2.9690 H   0  0  0  0  0  0  0  0  0  0  0  0
   -6.8789    2.0273    5.6186 H   0  0  0  0  0  0  0  0  0  0  0  0
   -8.3744    4.1495    5.8487 H   0  0  0  0  0  0  0  0  0  0  0  0
   -7.9801    4.4099    4.0586 H   0  0  0  0  0  0  0  0  0  0  0  0
   -8.8013    2.9606    4.6018 H   0  0  0  0  0  0  0  0  0  0  0  0
   -5.0410    3.0383    6.4447 H   0  0  0  0  0  0  0  0  0  0  0  0
   -5.8098    5.3930    3.8277 H   0  0  0  0  0  0  0  0  0  0  0  0
   -4.6832    7.5632    3.6240 H   0  0  0  0  0  0  0  0  0  0  0  0
   -3.4342    8.4916    5.5365 H   0  0  0  0  0  0  0  0  0  0  0  0
   -3.3652    7.1982    7.6415 H   0  0  0  0  0  0  0  0  0  0  0  0
   -4.4647    5.0928    7.8455 H   0  0  0  0  0  0  0  0  0  0  0  0
   -6.0773    3.8322    8.0587 H   0  0  0  0  0  0  0  0  0  0  0  0
   -1.8454    1.7055    2.3834 H   0  0  0  0  0  0  0  0  0  0  0  0
   -1.2024    0.0659    2.4701 H   0  0  0  0  0  0  0  0  0  0  0  0
   -0.9322    1.0908    3.8806 H   0  0  0  0  0  0  0  0  0  0  0  0
   -1.7603   -6.5987    1.2681 H   0  0  0  0  0  0  0  0  0  0  0  0
   -2.8386   -5.2019    1.3079 H   0  0  0  0  0  0  0  0  0  0  0  0
   -2.5982   -6.1309   -0.2458 H   0  0  0  0  0  0  0  0  0  0  0  0
    1.5485   -4.8675    5.0307 H   0  0  0  0  0  0  0  0  0  0  0  0
    1.8191   -6.2517    3.9713 H   0  0  0  0  0  0  0  0  0  0  0  0
    0.1949   -5.5455    4.1336 H   0  0  0  0  0  0  0  0  0  0  0  0
    2.4435   -2.9661    5.2022 H   0  0  0  0  0  0  0  0  0  0  0  0
    4.8950   -2.8783    5.2895 H   0  0  0  0  0  0  0  0  0  0  0  0
    5.0167   -3.3457    2.2758 H   0  0  0  0  0  0  0  0  0  0  0  0
    6.2489   -2.8730    3.4556 H   0  0  0  0  0  0  0  0  0  0  0  0
    5.0546   -1.6662    2.9933 H   0  0  0  0  0  0  0  0  0  0  0  0
    3.9266   -5.1808    5.1878 H   0  0  0  0  0  0  0  0  0  0  0  0
    4.0502   -5.1134    3.3833 H   0  0  0  0  0  0  0  0  0  0  0  0
    5.5438   -5.0374    4.3401 H   0  0  0  0  0  0  0  0  0  0  0  0
    3.2748   -0.7466    3.3630 H   0  0  0  0  0  0  0  0  0  0  0  0
    1.7846    1.3345    5.9136 H   0  0  0  0  0  0  0  0  0  0  0  0
    3.7201    2.7098    6.3401 H   0  0  0  0  0  0  0  0  0  0  0  0
    5.8435    1.9529    5.8788 H   0  0  0  0  0  0  0  0  0  0  0  0
    5.6238    1.2601    7.4746 H   0  0  0  0  0  0  0  0  0  0  0  0
    5.4219    0.2121    6.0443 H   0  0  0  0  0  0  0  0  0  0  0  0
    3.5547    2.2359    8.5784 H   0  0  0  0  0  0  0  0  0  0  0  0
    2.0979    1.4703    7.8545 H   0  0  0  0  0  0  0  0  0  0  0  0
    3.4508    0.4192    8.3191 H   0  0  0  0  0  0  0  0  0  0  0  0
    0.9329    2.3729    4.5726 H   0  0  0  0  0  0  0  0  0  0  0  0
    1.3381    1.9446    2.8884 H   0  0  0  0  0  0  0  0  0  0  0  0
    1.9900    3.4810    3.6922 H   0  0  0  0  0  0  0  0  0  0  0  0
    5.4318    2.7527    1.0824 H   0  0  0  0  0  0  0  0  0  0  0  0
    4.9263    1.0887    0.6620 H   0  0  0  0  0  0  0  0  0  0  0  0
    4.4740    4.5426   -0.4069 H   0  0  0  0  0  0  0  0  0  0  0  0
    2.8782    5.1306   -2.2691 H   0  0  0  0  0  0  0  0  0  0  0  0
    1.3404    1.1702   -2.1086 H   0  0  0  0  0  0  0  0  0  0  0  0
    2.8507    0.5966   -0.3304 H   0  0  0  0  0  0  0  0  0  0  0  0
    0.1238    3.7701   -3.0448 H   0  0  0  0  0  0  0  0  0  0  0  0
   -0.6589    2.3938   -5.1811 H   0  0  0  0  0  0  0  0  0  0  0  0
   -0.8529    4.8457   -4.7745 H   0  0  0  0  0  0  0  0  0  0  0  0
    0.2620    5.1939   -6.1528 H   0  0  0  0  0  0  0  0  0  0  0  0
   -1.3024    3.9533   -7.6908 H   0  0  0  0  0  0  0  0  0  0  0  0
   -2.4056    3.6174   -6.3338 H   0  0  0  0  0  0  0  0  0  0  0  0
   -1.6539    6.3701   -7.4362 H   0  0  0  0  0  0  0  0  0  0  0  0
   -2.6827    6.1185   -6.0105 H   0  0  0  0  0  0  0  0  0  0  0  0
   -3.6491    4.5359   -8.2774 H   0  0  0  0  0  0  0  0  0  0  0  0
   -5.1271    6.0506  -10.1626 H   0  0  0  0  0  0  0  0  0  0  0  0
   -6.3736    6.4343   -8.9536 H   0  0  0  0  0  0  0  0  0  0  0  0
    0.4162    2.9880   -7.7985 H   0  0  0  0  0  0  0  0  0  0  0  0
   -0.0025   -0.0478   -8.4572 H   0  0  0  0  0  0  0  0  0  0  0  0
    3.0090    0.7360   -8.1715 H   0  0  0  0  0  0  0  0  0  0  0  0
    2.3354    2.7637   -9.0377 H   0  0  0  0  0  0  0  0  0  0  0  0
    0.8835    2.1051   -9.8860 H   0  0  0  0  0  0  0  0  0  0  0  0
    2.5453    1.8055  -10.5122 H   0  0  0  0  0  0  0  0  0  0  0  0
    1.5721   -1.1950   -9.8985 H   0  0  0  0  0  0  0  0  0  0  0  0
    3.2290   -1.1293   -9.2916 H   0  0  0  0  0  0  0  0  0  0  0  0
    2.8373   -0.1145  -10.7152 H   0  0  0  0  0  0  0  0  0  0  0  0
    2.4145   -1.4215   -7.4297 H   0  0  0  0  0  0  0  0  0  0  0  0
    0.4032   -3.8935   -6.4094 H   0  0  0  0  0  0  0  0  0  0  0  0
    2.0500   -3.4213   -6.1072 H   0  0  0  0  0  0  0  0  0  0  0  0
   -0.5542   -3.2773   -4.4905 H   0  0  0  0  0  0  0  0  0  0  0  0
    0.7873   -4.3168   -4.0375 H   0  0  0  0  0  0  0  0  0  0  0  0
    0.4763   -1.2536   -3.6127 H   0  0  0  0  0  0  0  0  0  0  0  0
    0.3922   -2.5727   -2.4653 H   0  0  0  0  0  0  0  0  0  0  0  0
    2.3916   -1.2028   -2.2565 H   0  0  0  0  0  0  0  0  0  0  0  0
    2.7422   -2.9173   -2.3889 H   0  0  0  0  0  0  0  0  0  0  0  0
    3.4620   -2.6444   -4.7015 H   0  0  0  0  0  0  0  0  0  0  0  0
    2.9781   -0.8588   -4.7237 H   0  0  0  0  0  0  0  0  0  0  0  0
    7.3243    0.3118   -2.4120 H   0  0  0  0  0  0  0  0  0  0  0  0
    7.8129   -2.1618   -2.6064 H   0  0  0  0  0  0  0  0  0  0  0  0
  1  2  1  0
  2  3  1  0
  3  4  1  0
  3  5  1  0
  5  6  1  0
  6  7  1  0
  7  8  1  0
  8  9  2  0
  8 10  1  0
 10 11  1  0
 11 12  1  0
 12 13  1  0
 13 14  1  0
 14 15  1  0
 15 16  1  0
 16 17  1  0
 16 18  1  0
 18 19  2  0
 18 20  1  0
 20 21  1  0
 21 22  1  0
 21 23  1  0
 23 24  1  0
 24 25  2  0
 25 26  1  0
 26 27  2  0
 27 28  1  0
 28 29  2  0
 23 30  1  0
 15 31  1  0
 31 32  1  0
  6 33  1  0
 33 34  1  0
  5 35  1  0
 35 36  1  0
 35 37  1  0
 37 38  2  0
 37 39  1  0
 39 40  1  0
 40 41  1  0
 40 42  1  0
 39 43  1  0
 43 44  1  0
 44 45  2  0
 44 46  1  0
 46 47  1  0
 47 48  1  0
 47 49  1  0
 46 50  1  0
 50 51  1  0
 50 52  1  0
 52 53  2  0
 52 54  1  0
 54 55  1  0
 55 56  1  0
 56 57  1  0
 57 58  2  0
 58 59  1  0
 59 60  2  0
 60 61  1  0
 59 62  1  0
 62 63  1  0
 63 64  2  0
 63 65  1  0
 65 66  1  0
 66 67  1  0
 67 68  1  0
 68 69  1  0
 69 70  1  0
 70 71  2  0
 70 72  1  0
 65 73  1  0
 73 74  1  0
 74 75  2  0
 74 76  1  0
 76 77  1  0
 77 78  1  0
 77 79  1  0
 76 80  1  0
 80 81  1  0
 81 82  2  0
 81 83  1  0
 83 84  1  0
 84 85  1  0
 85 86  1  0
 86 87  1  0
 87 88  1  0
 88 89  1  0
 89 90  2  0
 89 91  1  0
 91 92  2  0
 92 93  1  0
 93 94  2  0
 14 10  1  0
 29 24  1  0
 61 56  2  0
 93 88  1  0
  1 95  1  0
  1 96  1  0
  1 97  1  0
  2 98  1  0
  2 99  1  0
  3100  1  6
  4101  1  0
  4102  1  0
  4103  1  0
  5104  1  6
  6105  1  1
  7106  1  0
  7107  1  0
 11108  1  0
 11109  1  0
 12110  1  0
 12111  1  0
 13112  1  0
 13113  1  0
 14114  1  6
 15115  1  6
 16116  1  6
 17117  1  0
 17118  1  0
 17119  1  0
 20120  1  0
 21121  1  1
 22122  1  0
 22123  1  0
 22124  1  0
 23125  1  1
 25126  1  0
 26127  1  0
 27128  1  0
 28129  1  0
 29130  1  0
 30131  1  0
 32132  1  0
 32133  1  0
 32134  1  0
 34135  1  0
 34136  1  0
 34137  1  0
 36138  1  0
 36139  1  0
 36140  1  0
 39141  1  1
 40142  1  0
 41143  1  0
 41144  1  0
 41145  1  0
 42146  1  0
 42147  1  0
 42148  1  0
 43149  1  0
 46150  1  1
 47151  1  0
 48152  1  0
 48153  1  0
 48154  1  0
 49155  1  0
 49156  1  0
 49157  1  0
 51158  1  0
 51159  1  0
 51160  1  0
 55161  1  0
 55162  1  0
 57163  1  0
 58164  1  0
 60165  1  0
 61166  1  0
 62167  1  0
 65168  1  1
 66169  1  0
 66170  1  0
 67171  1  0
 67172  1  0
 68173  1  0
 68174  1  0
 69175  1  0
 72176  1  0
 72177  1  0
 73178  1  0
 76179  1  6
 77180  1  0
 78181  1  0
 78182  1  0
 78183  1  0
 79184  1  0
 79185  1  0
 79186  1  0
 80187  1  0
 83188  1  0
 83189  1  0
 84190  1  0
 84191  1  0
 85192  1  0
 85193  1  0
 86194  1  0
 86195  1  0
 87196  1  0
 87197  1  0
 91198  1  0
 92199  1  0
M  END
$$$$

     RDKit          3D

199202  0  0  0  0  0  0  0  0999 V2000
   -4.6252   -4.1349   -4.2718 C   0  0  0  0  0  0  0  0  0  0  0  0
   -3.4978   -4.0877   -3.2638 C   0  0  0  0  0  0  0  0  0  0  0  0
   -2.2010   -3.5541   -3.8874 C   0  0  2  0  0  0  0  0  0  0  0  0
   -1.9414   -4.5823   -5.0138 C   0  0  0  0  0  0  0  0  0  0  0  0
   -1.1257   -3.6588   -2.8683 C   0  0  1  0  0  0  0  0  0  0  0  0
    0.2320   -3.2201   -3.1991 C   0  0  1  0  0  0  0  0  0  0  0  0
    0.6710   -1.9047   -2.6686 C   0  0  0  0  0  0  0  0  0  0  0  0
   -0.0417   -0.6816   -3.0090 C   0  0  0  0  0  0  0  0  0  0  0  0
   -1.1286   -0.5398   -3.5797 O   0  0  0  0  0  0  0  0  0  0  0  0
    0.6146    0.5617   -2.6278 N   0  0  0  0  0  0  0  0  0  0  0  0
    1.9120    0.6226   -1.9279 C   0  0  0  0  0  0  0  0  0  0  0  0
    2.0821    2.0503   -1.4994 C   0  0  0  0  0  0  0  0  0  0  0  0
    0.6739    2.5819   -1.5354 C   0  0  0  0  0  0  0  0  0  0  0  0
    0.1692    1.9157   -2.8112 C   0  0  1  0  0  0  0  0  0  0  0  0
    0.6031    2.6871   -3.9861 C   0  0  1  0  0  0  0  0  0  0  0  0
    0.3842    2.1191   -5.3529 C   0  0  1  0  0  0  0  0  0  0  0  0
    1.1276    0.8261   -5.5174 C   0  0  0  0  0  0  0  0  0  0  0  0
   -1.0181    1.8741   -5.7585 C   0  0  0  0  0  0  0  0  0  0  0  0
   -1.3905    0.7825   -6.3081 O   0  0  0  0  0  0  0  0  0  0  0  0
   -1.9584    2.9139   -5.5097 N   0  0  0  0  0  0  0  0  0  0  0  0
   -3.3550    2.8311   -5.8528 C   0  0  2  0  0  0  0  0  0  0  0  0
   -3.8143    4.1402   -6.4204 C   0  0  0  0  0  0  0  0  0  0  0  0
   -4.1976    2.5371   -4.6050 C   0  0  1  0  0  0  0  0  0  0  0  0
   -5.6276    2.3977   -4.9581 C   0  0  0  0  0  0  0  0  0  0  0  0
   -6.5321    3.3688   -4.5039 C   0  0  0  0  0  0  0  0  0  0  0  0
   -7.8732    3.3060   -4.7954 C   0  0  0  0  0  0  0  0  0  0  0  0
   -8.3287    2.2669   -5.5484 C   0  0  0  0  0  0  0  0  0  0  0  0
   -7.4570    1.2920   -6.0116 C   0  0  0  0  0  0  0  0  0  0  0  0
   -6.0956    1.3275   -5.7336 C   0  0  0  0  0  0  0  0  0  0  0  0
   -3.7497    1.2976   -4.1146 O   0  0  0  0  0  0  0  0  0  0  0  0
    0.1110    3.9952   -3.9143 O   0  0  0  0  0  0  0  0  0  0  0  0
    0.8971    5.0484   -3.9319 C   0  0  0  0  0  0  0  0  0  0  0  0
    1.2036   -4.1010   -2.5832 O   0  0  0  0  0  0  0  0  0  0  0  0
    2.0419   -4.6204   -3.5488 C   0  0  0  0  0  0  0  0  0  0  0  0
   -1.5170   -3.5717   -1.4965 N   0  0  0  0  0  0  0  0  0  0  0  0
   -1.9385   -2.3703   -0.8102 C   0  0  0  0  0  0  0  0  0  0  0  0
   -1.4812   -4.8249   -0.7518 C   0  0  0  0  0  0  0  0  0  0  0  0
   -1.0240   -5.8540   -1.3073 O   0  0  0  0  0  0  0  0  0  0  0  0
   -1.9612   -4.9396    0.6259 C   0  0  1  0  0  0  0  0  0  0  0  0
   -3.4839   -5.1162    0.6721 C   0  0  0  0  0  0  0  0  0  0  0  0
   -3.8522   -6.4069   -0.0769 C   0  0  0  0  0  0  0  0  0  0  0  0
   -3.8535   -5.3309    2.1181 C   0  0  0  0  0  0  0  0  0  0  0  0
   -1.4918   -6.2732    1.0897 N   0  0  0  0  0  0  0  0  0  0  0  0
   -0.8857   -6.4281    2.3457 C   0  0  0  0  0  0  0  0  0  0  0  0
   -0.7660   -5.3686    3.0527 O   0  0  0  0  0  0  0  0  0  0  0  0
   -0.3807   -7.6702    2.9322 C   0  0  1  0  0  0  0  0  0  0  0  0
    0.4956   -8.4995    2.0352 C   0  0  0  0  0  0  0  0  0  0  0  0
    1.7211   -7.8343    1.5316 C   0  0  0  0  0  0  0  0  0  0  0  0
    0.9371   -9.7497    2.8082 C   0  0  0  0  0  0  0  0  0  0  0  0
    0.0945   -7.4383    4.2573 N   0  0  0  0  0  0  0  0  0  0  0  0
   -0.6248   -8.0819    5.3611 C   0  0  0  0  0  0  0  0  0  0  0  0
    1.2086   -6.6351    4.6278 C   0  0  0  0  0  0  0  0  0  0  0  0
    1.9352   -6.0225    3.8079 O   0  0  0  0  0  0  0  0  0  0  0  0
    1.5443   -6.4926    5.9629 O   0  0  0  0  0  0  0  0  0  0  0  0
    2.6072   -5.7413    6.4929 C   0  0  0  0  0  0  0  0  0  0  0  0
    2.4987   -4.3044    6.0731 C   0  0  0  0  0  0  0  0  0  0  0  0
    3.3314   -3.8957    5.0391 C   0  0  0  0  0  0  0  0  0  0  0  0
    3.2686   -2.6162    4.5433 C   0  0  0  0  0  0  0  0  0  0  0  0
    2.3645   -1.7382    5.0854 C   0  0  0  0  0  0  0  0  0  0  0  0
    1.5270   -2.1438    6.1267 C   0  0  0  0  0  0  0  0  0  0  0  0
    1.5874   -3.4384    6.6327 C   0  0  0  0  0  0  0  0  0  0  0  0
    2.2457   -0.4107    4.6006 N   0  0  0  0  0  0  0  0  0  0  0  0
    2.8768    0.7178    5.1717 C   0  0  0  0  0  0  0  0  0  0  0  0
    3.6239    0.6095    6.1894 O   0  0  0  0  0  0  0  0  0  0  0  0
    2.6762    2.0372    4.5912 C   0  0  1  0  0  0  0  0  0  0  0  0
    1.2675    2.6042    4.7263 C   0  0  0  0  0  0  0  0  0  0  0  0
    0.1711    1.8274    4.1090 C   0  0  0  0  0  0  0  0  0  0  0  0
   -1.1134    2.6491    4.3220 C   0  0  0  0  0  0  0  0  0  0  0  0
   -2.2283    1.9772    3.7211 N   0  0  0  0  0  0  0  0  0  0  0  0
   -2.7044    0.6991    4.0446 C   0  0  0  0  0  0  0  0  0  0  0  0
   -2.1816    0.0016    4.9232 O   0  0  0  0  0  0  0  0  0  0  0  0
   -3.8281    0.1652    3.3495 N   0  0  0  0  0  0  0  0  0  0  0  0
    3.5734    2.9960    5.2925 N   0  0  0  0  0  0  0  0  0  0  0  0
    4.1951    3.9433    4.4524 C   0  0  0  0  0  0  0  0  0  0  0  0
    4.0283    3.9752    3.2001 O   0  0  0  0  0  0  0  0  0  0  0  0
    5.1177    5.0263    4.9743 C   0  0  1  0  0  0  0  0  0  0  0  0
    6.4156    4.5564    5.4641 C   0  0  0  0  0  0  0  0  0  0  0  0
    6.3003    3.5603    6.6221 C   0  0  0  0  0  0  0  0  0  0  0  0
    7.2805    3.9604    4.3650 C   0  0  0  0  0  0  0  0  0  0  0  0
    5.3191    5.8585    3.7650 N   0  0  0  0  0  0  0  0  0  0  0  0
    4.2858    6.7936    3.5309 C   0  0  0  0  0  0  0  0  0  0  0  0
    3.3246    6.8377    4.3461 O   0  0  0  0  0  0  0  0  0  0  0  0
    4.2330    7.7349    2.3850 C   0  0  0  0  0  0  0  0  0  0  0  0
    2.7759    8.2639    2.3888 C   0  0  0  0  0  0  0  0  0  0  0  0
    2.5288    9.2297    1.2824 C   0  0  0  0  0  0  0  0  0  0  0  0
    1.0825    9.7071    1.3318 C   0  0  0  0  0  0  0  0  0  0  0  0
    0.1300    8.5499    1.1797 C   0  0  0  0  0  0  0  0  0  0  0  0
   -1.2581    8.9971    1.2045 N   0  0  0  0  0  0  0  0  0  0  0  0
   -2.0348    9.1042    2.4104 C   0  0  0  0  0  0  0  0  0  0  0  0
   -1.6067    8.8370    3.5541 O   0  0  0  0  0  0  0  0  0  0  0  0
   -3.3658    9.5691    2.0483 C   0  0  0  0  0  0  0  0  0  0  0  0
   -3.3979    9.7299    0.7531 C   0  0  0  0  0  0  0  0  0  0  0  0
   -2.1058    9.3900    0.1447 C   0  0  0  0  0  0  0  0  0  0  0  0
   -1.7635    9.4228   -1.0573 O   0  0  0  0  0  0  0  0  0  0  0  0
   -5.5802   -3.7812   -3.7822 H   0  0  0  0  0  0  0  0  0  0  0  0
   -4.4782   -3.4540   -5.1258 H   0  0  0  0  0  0  0  0  0  0  0  0
   -4.8633   -5.1848   -4.5677 H   0  0  0  0  0  0  0  0  0  0  0  0
   -3.8332   -3.5220   -2.4027 H   0  0  0  0  0  0  0  0  0  0  0  0
   -3.2266   -5.1371   -2.9421 H   0  0  0  0  0  0  0  0  0  0  0  0
   -2.3501   -2.6290   -4.4141 H   0  0  0  0  0  0  0  0  0  0  0  0
   -1.6578   -5.5684   -4.6029 H   0  0  0  0  0  0  0  0  0  0  0  0
   -1.2824   -4.1761   -5.7785 H   0  0  0  0  0  0  0  0  0  0  0  0
   -2.9281   -4.7135   -5.5057 H   0  0  0  0  0  0  0  0  0  0  0  0
   -0.9482   -4.8679   -2.9128 H   0  0  0  0  0  0  0  0  0  0  0  0
    0.5155   -3.2815   -4.2601 H   0  0  0  0  0  0  0  0  0  0  0  0
    1.7141   -1.7464   -3.1630 H   0  0  0  0  0  0  0  0  0  0  0  0
    0.9347   -1.9580   -1.5710 H   0  0  0  0  0  0  0  0  0  0  0  0
    1.8027    0.0106   -0.9833 H   0  0  0  0  0  0  0  0  0  0  0  0
    2.7342    0.2154   -2.5360 H   0  0  0  0  0  0  0  0  0  0  0  0
    2.5245    2.1264   -0.4774 H   0  0  0  0  0  0  0  0  0  0  0  0
    2.7249    2.5618   -2.2476 H   0  0  0  0  0  0  0  0  0  0  0  0
    0.6989    3.6715   -1.5788 H   0  0  0  0  0  0  0  0  0  0  0  0
    0.1185    2.2005   -0.6474 H   0  0  0  0  0  0  0  0  0  0  0  0
   -0.9630    1.8355   -2.7459 H   0  0  0  0  0  0  0  0  0  0  0  0
    1.7002    2.8544   -3.9359 H   0  0  0  0  0  0  0  0  0  0  0  0
    0.8844    2.8418   -6.0598 H   0  0  0  0  0  0  0  0  0  0  0  0
    1.8476    0.5889   -4.7284 H   0  0  0  0  0  0  0  0  0  0  0  0
    0.4295   -0.0354   -5.7528 H   0  0  0  0  0  0  0  0  0  0  0  0
    1.7657    0.8446   -6.4636 H   0  0  0  0  0  0  0  0  0  0  0  0
   -1.6347    3.7948   -5.0510 H   0  0  0  0  0  0  0  0  0  0  0  0
   -3.5700    2.0240   -6.5875 H   0  0  0  0  0  0  0  0  0  0  0  0
   -3.1472    4.4599   -7.2569 H   0  0  0  0  0  0  0  0  0  0  0  0
   -4.8438    4.0958   -6.8460 H   0  0  0  0  0  0  0  0  0  0  0  0
   -3.7403    4.9548   -5.6613 H   0  0  0  0  0  0  0  0  0  0  0  0
   -4.0897    3.3211   -3.8480 H   0  0  0  0  0  0  0  0  0  0  0  0
   -6.1501    4.2061   -3.8969 H   0  0  0  0  0  0  0  0  0  0  0  0
   -8.5206    4.0885   -4.4109 H   0  0  0  0  0  0  0  0  0  0  0  0
   -9.3767    2.1765   -5.8017 H   0  0  0  0  0  0  0  0  0  0  0  0
   -7.8106    0.4534   -6.6175 H   0  0  0  0  0  0  0  0  0  0  0  0
   -5.4024    0.5752   -6.0876 H   0  0  0  0  0  0  0  0  0  0  0  0
   -3.5228    0.6723   -4.8408 H   0  0  0  0  0  0  0  0  0  0  0  0
    0.2523    5.9772   -3.8499 H   0  0  0  0  0  0  0  0  0  0  0  0
    1.6148    5.1061   -3.1053 H   0  0  0  0  0  0  0  0  0  0  0  0
    1.4902    5.2478   -4.8490 H   0  0  0  0  0  0  0  0  0  0  0  0
    2.6084   -3.8340   -4.1033 H   0  0  0  0  0  0  0  0  0  0  0  0
    1.5733   -5.2414   -4.3070 H   0  0  0  0  0  0  0  0  0  0  0  0
    2.7988   -5.2281   -3.0106 H   0  0  0  0  0  0  0  0  0  0  0  0
   -2.3868   -2.6469    0.1936 H   0  0  0  0  0  0  0  0  0  0  0  0
   -1.1150   -1.6863   -0.5229 H   0  0  0  0  0  0  0  0  0  0  0  0
   -2.6409   -1.7351   -1.3859 H   0  0  0  0  0  0  0  0  0  0  0  0
   -1.6821   -4.2248    1.3596 H   0  0  0  0  0  0  0  0  0  0  0  0
   -4.0510   -4.2757    0.3013 H   0  0  0  0  0  0  0  0  0  0  0  0
   -3.6983   -7.2487    0.6499 H   0  0  0  0  0  0  0  0  0  0  0  0
   -4.9497   -6.3677   -0.2297 H   0  0  0  0  0  0  0  0  0  0  0  0
   -3.2586   -6.5256   -0.9820 H   0  0  0  0  0  0  0  0  0  0  0  0
   -3.4616   -4.4470    2.6852 H   0  0  0  0  0  0  0  0  0  0  0  0
   -4.9572   -5.3077    2.2383 H   0  0  0  0  0  0  0  0  0  0  0  0
   -3.4013   -6.2515    2.5214 H   0  0  0  0  0  0  0  0  0  0  0  0
   -1.6077   -7.1157    0.4919 H   0  0  0  0  0  0  0  0  0  0  0  0
   -1.3319   -8.3351    3.0604 H   0  0  0  0  0  0  0  0  0  0  0  0
   -0.1162   -8.8411    1.1484 H   0  0  0  0  0  0  0  0  0  0  0  0
    2.6275   -8.0031    2.1562 H   0  0  0  0  0  0  0  0  0  0  0  0
    1.5416   -6.7731    1.2639 H   0  0  0  0  0  0  0  0  0  0  0  0
    1.9425   -8.3103    0.5160 H   0  0  0  0  0  0  0  0  0  0  0  0
    0.2050   -9.9690    3.6275 H   0  0  0  0  0  0  0  0  0  0  0  0
    0.9216  -10.6183    2.1187 H   0  0  0  0  0  0  0  0  0  0  0  0
    1.9510   -9.6456    3.2123 H   0  0  0  0  0  0  0  0  0  0  0  0
   -1.3997   -8.7675    4.9816 H   0  0  0  0  0  0  0  0  0  0  0  0
   -1.1021   -7.3162    5.9752 H   0  0  0  0  0  0  0  0  0  0  0  0
    0.1403   -8.6521    5.9260 H   0  0  0  0  0  0  0  0  0  0  0  0
    3.6047   -6.1205    6.2314 H   0  0  0  0  0  0  0  0  0  0  0  0
    2.5409   -5.7712    7.5937 H   0  0  0  0  0  0  0  0  0  0  0  0
    4.0712   -4.5531    4.5827 H   0  0  0  0  0  0  0  0  0  0  0  0
    3.9322   -2.3157    3.7339 H   0  0  0  0  0  0  0  0  0  0  0  0
    0.8055   -1.4705    6.5725 H   0  0  0  0  0  0  0  0  0  0  0  0
    0.9580   -3.7883    7.4359 H   0  0  0  0  0  0  0  0  0  0  0  0
    1.6490   -0.3156    3.7243 H   0  0  0  0  0  0  0  0  0  0  0  0
    2.9392    2.1059    3.5116 H   0  0  0  0  0  0  0  0  0  0  0  0
    1.2785    3.6560    4.3648 H   0  0  0  0  0  0  0  0  0  0  0  0
    1.1300    2.7150    5.8439 H   0  0  0  0  0  0  0  0  0  0  0  0
   -0.0488    0.8690    4.6393 H   0  0  0  0  0  0  0  0  0  0  0  0
    0.3456    1.5869    3.0539 H   0  0  0  0  0  0  0  0  0  0  0  0
   -1.0023    3.6826    3.9934 H   0  0  0  0  0  0  0  0  0  0  0  0
   -1.2489    2.6824    5.4343 H   0  0  0  0  0  0  0  0  0  0  0  0
   -2.7387    2.4990    2.9596 H   0  0  0  0  0  0  0  0  0  0  0  0
   -3.7458    0.0328    2.3075 H   0  0  0  0  0  0  0  0  0  0  0  0
   -4.7107   -0.0980    3.8034 H   0  0  0  0  0  0  0  0  0  0  0  0
    3.7137    2.9569    6.3180 H   0  0  0  0  0  0  0  0  0  0  0  0
    4.5468    5.6197    5.7165 H   0  0  0  0  0  0  0  0  0  0  0  0
    7.0386    5.3966    5.8866 H   0  0  0  0  0  0  0  0  0  0  0  0
    5.5821    3.9575    7.3574 H   0  0  0  0  0  0  0  0  0  0  0  0
    7.2744    3.5088    7.1818 H   0  0  0  0  0  0  0  0  0  0  0  0
    6.0685    2.5527    6.2342 H   0  0  0  0  0  0  0  0  0  0  0  0
    6.6385    3.4291    3.6340 H   0  0  0  0  0  0  0  0  0  0  0  0
    7.9954    3.2738    4.8659 H   0  0  0  0  0  0  0  0  0  0  0  0
    7.8710    4.7761    3.9020 H   0  0  0  0  0  0  0  0  0  0  0  0
    6.1133    5.7900    3.1407 H   0  0  0  0  0  0  0  0  0  0  0  0
    4.4087    7.1916    1.4425 H   0  0  0  0  0  0  0  0  0  0  0  0
    4.9414    8.5573    2.4740 H   0  0  0  0  0  0  0  0  0  0  0  0
    2.5320    8.6448    3.3801 H   0  0  0  0  0  0  0  0  0  0  0  0
    2.1435    7.3451    2.2066 H   0  0  0  0  0  0  0  0  0  0  0  0
    2.7214    8.7344    0.2992 H   0  0  0  0  0  0  0  0  0  0  0  0
    3.2263   10.0834    1.3547 H   0  0  0  0  0  0  0  0  0  0  0  0
    0.9090   10.1816    2.3279 H   0  0  0  0  0  0  0  0  0  0  0  0
    0.9462   10.4495    0.5239 H   0  0  0  0  0  0  0  0  0  0  0  0
    0.3012    7.9882    0.2477 H   0  0  0  0  0  0  0  0  0  0  0  0
    0.2595    7.8270    2.0393 H   0  0  0  0  0  0  0  0  0  0  0  0
   -4.1389    9.7281    2.7989 H   0  0  0  0  0  0  0  0  0  0  0  0
   -4.2478   10.0638    0.1866 H   0  0  0  0  0  0  0  0  0  0  0  0
  1  2  1  0
  2  3  1  0
  3  4  1  0
  3  5  1  0
  5  6  1  0
  6  7  1  0
  7  8  1  0
  8  9  2  0
  8 10  1  0
 10 11  1  0
 11 12  1  0
 12 13  1  0
 13 14  1  0
 14 15  1  0
 15 16  1  0
 16 17  1  0
 16 18  1  0
 18 19  2  0
 18 20  1  0
 20 21  1  0
 21 22  1  0
 21 23  1  0
 23 24  1  0
 24 25  2  0
 25 26  1  0
 26 27  2  0
 27 28  1  0
 28 29  2  0
 23 30  1  0
 15 31  1  0
 31 32  1  0
  6 33  1  0
 33 34  1  0
  5 35  1  0
 35 36  1  0
 35 37  1  0
 37 38  2  0
 37 39  1  0
 39 40  1  0
 40 41  1  0
 40 42  1  0
 39 43  1  0
 43 44  1  0
 44 45  2  0
 44 46  1  0
 46 47  1  0
 47 48  1  0
 47 49  1  0
 46 50  1  0
 50 51  1  0
 50 52  1  0
 52 53  2  0
 52 54  1  0
 54 55  1  0
 55 56  1  0
 56 57  1  0
 57 58  2  0
 58 59  1  0
 59 60  2  0
 60 61  1  0
 59 62  1  0
 62 63  1  0
 63 64  2  0
 63 65  1  0
 65 66  1  0
 66 67  1  0
 67 68  1  0
 68 69  1  0
 69 70  1  0
 70 71  2  0
 70 72  1  0
 65 73  1  0
 73 74  1  0
 74 75  2  0
 74 76  1  0
 76 77  1  0
 77 78  1  0
 77 79  1  0
 76 80  1  0
 80 81  1  0
 81 82  2  0
 81 83  1  0
 83 84  1  0
 84 85  1  0
 85 86  1  0
 86 87  1  0
 87 88  1  0
 88 89  1  0
 89 90  2  0
 89 91  1  0
 91 92  2  0
 92 93  1  0
 93 94  2  0
 14 10  1  0
 29 24  1  0
 61 56  2  0
 93 88  1  0
  1 95  1  0
  1 96  1  0
  1 97  1  0
  2 98  1  0
  2 99  1  0
  3100  1  6
  4101  1  0
  4102  1  0
  4103  1  0
  5104  1  1
  6105  1  6
  7106  1  0
  7107  1  0
 11108  1  0
 11109  1  0
 12110  1  0
 12111  1  0
 13112  1  0
 13113  1  0
 14114  1  1
 15115  1  1
 16116  1  6
 17117  1  0
 17118  1  0
 17119  1  0
 20120  1  0
 21121  1  6
 22122  1  0
 22123  1  0
 22124  1  0
 23125  1  1
 25126  1  0
 26127  1  0
 27128  1  0
 28129  1  0
 29130  1  0
 30131  1  0
 32132  1  0
 32133  1  0
 32134  1  0
 34135  1  0
 34136  1  0
 34137  1  0
 36138  1  0
 36139  1  0
 36140  1  0
 39141  1  1
 40142  1  0
 41143  1  0
 41144  1  0
 41145  1  0
 42146  1  0
 42147  1  0
 42148  1  0
 43149  1  0
 46150  1  1
 47151  1  0
 48152  1  0
 48153  1  0
 48154  1  0
 49155  1  0
 49156  1  0
 49157  1  0
 51158  1  0
 51159  1  0
 51160  1  0
 55161  1  0
 55162  1  0
 57163  1  0
 58164  1  0
 60165  1  0
 61166  1  0
 62167  1  0
 65168  1  6
 66169  1  0
 66170  1  0
 67171  1  0
 67172  1  0
 68173  1  0
 68174  1  0
 69175  1  0
 72176  1  0
 72177  1  0
 73178  1  0
 76179  1  1
 77180  1  0
 78181  1  0
 78182  1  0
 78183  1  0
 79184  1  0
 79185  1  0
 79186  1  0
 80187  1  0
 83188  1  0
 83189  1  0
 84190  1  0
 84191  1  0
 85192  1  0
 85193  1  0
 86194  1  0
 86195  1  0
 87196  1  0
 87197  1  0
 91198  1  0
 92199  1  0
M  END
$$$$

     RDKit          3D

199202  0  0  0  0  0  0  0  0999 V2000
   -4.7542    0.5918    2.9644 C   0  0  0  0  0  0  0  0  0  0  0  0
   -3.4132   -0.0144    2.7799 C   0  0  0  0  0  0  0  0  0  0  0  0
   -3.0861   -0.3044    1.2805 C   0  0  2  0  0  0  0  0  0  0  0  0
   -3.1470    1.0576    0.5930 C   0  0  0  0  0  0  0  0  0  0  0  0
   -3.9953   -1.3230    0.7512 C   0  0  1  0  0  0  0  0  0  0  0  0
   -3.8617   -1.8661   -0.6531 C   0  0  1  0  0  0  0  0  0  0  0  0
   -3.3047   -0.8790   -1.6069 C   0  0  0  0  0  0  0  0  0  0  0  0
   -3.1864   -1.3042   -3.0332 C   0  0  0  0  0  0  0  0  0  0  0  0
   -3.5954   -2.3924   -3.4822 O   0  0  0  0  0  0  0  0  0  0  0  0
   -2.5622   -0.3963   -3.9760 N   0  0  0  0  0  0  0  0  0  0  0  0
   -1.9947    0.8908   -3.4953 C   0  0  0  0  0  0  0  0  0  0  0  0
   -2.3650    1.8029   -4.6670 C   0  0  0  0  0  0  0  0  0  0  0  0
   -1.9700    0.9019   -5.7872 C   0  0  0  0  0  0  0  0  0  0  0  0
   -2.4757   -0.4940   -5.3519 C   0  0  1  0  0  0  0  0  0  0  0  0
   -1.6337   -1.4280   -6.1080 C   0  0  1  0  0  0  0  0  0  0  0  0
   -1.5370   -2.8547   -5.7767 C   0  0  1  0  0  0  0  0  0  0  0  0
   -0.6245   -3.4979   -6.8675 C   0  0  0  0  0  0  0  0  0  0  0  0
   -0.6449   -3.0737   -4.5431 C   0  0  0  0  0  0  0  0  0  0  0  0
   -0.1679   -2.0851   -3.9330 O   0  0  0  0  0  0  0  0  0  0  0  0
   -0.3825   -4.4325   -4.1342 N   0  0  0  0  0  0  0  0  0  0  0  0
    0.4707   -4.6176   -3.0113 C   0  0  2  0  0  0  0  0  0  0  0  0
    1.6803   -5.4772   -3.4185 C   0  0  0  0  0  0  0  0  0  0  0  0
   -0.0782   -5.1714   -1.7627 C   0  0  1  0  0  0  0  0  0  0  0  0
   -0.5419   -6.5629   -1.7324 C   0  0  0  0  0  0  0  0  0  0  0  0
   -0.7562   -7.4124   -2.7692 C   0  0  0  0  0  0  0  0  0  0  0  0
   -1.2191   -8.7215   -2.5614 C   0  0  0  0  0  0  0  0  0  0  0  0
   -1.4745   -9.2026   -1.2986 C   0  0  0  0  0  0  0  0  0  0  0  0
   -1.2560   -8.3400   -0.2462 C   0  0  0  0  0  0  0  0  0  0  0  0
   -0.8104   -7.0750   -0.4457 C   0  0  0  0  0  0  0  0  0  0  0  0
    1.0175   -5.1724   -0.8217 O   0  0  0  0  0  0  0  0  0  0  0  0
   -1.9376   -1.2575   -7.4679 O   0  0  0  0  0  0  0  0  0  0  0  0
   -0.9260   -0.8108   -8.2615 C   0  0  0  0  0  0  0  0  0  0  0  0
   -2.9922   -2.9726   -0.5100 O   0  0  0  0  0  0  0  0  0  0  0  0
   -3.6617   -4.1610   -0.7272 C   0  0  0  0  0  0  0  0  0  0  0  0
   -4.4052   -2.3157    1.7456 N   0  0  0  0  0  0  0  0  0  0  0  0
   -5.7847   -2.5181    2.1320 C   0  0  0  0  0  0  0  0  0  0  0  0
   -3.3680   -3.0873    2.3192 C   0  0  0  0  0  0  0  0  0  0  0  0
   -2.1629   -2.9591    1.8887 O   0  0  0  0  0  0  0  0  0  0  0  0
   -3.5103   -4.0655    3.4308 C   0  0  1  0  0  0  0  0  0  0  0  0
   -4.2614   -5.3079    3.1778 C   0  0  0  0  0  0  0  0  0  0  0  0
   -4.3341   -6.1732    4.4673 C   0  0  0  0  0  0  0  0  0  0  0  0
   -3.6755   -6.1851    2.0865 C   0  0  0  0  0  0  0  0  0  0  0  0
   -2.1091   -4.3870    3.8754 N   0  0  0  0  0  0  0  0  0  0  0  0
   -1.6712   -3.7404    5.0377 C   0  0  0  0  0  0  0  0  0  0  0  0
   -2.4566   -2.9460    5.6726 O   0  0  0  0  0  0  0  0  0  0  0  0
   -0.3183   -3.8830    5.6308 C   0  0  1  0  0  0  0  0  0  0  0  0
   -0.2502   -3.8080    7.1032 C   0  0  0  0  0  0  0  0  0  0  0  0
   -1.0470   -4.8373    7.8286 C   0  0  0  0  0  0  0  0  0  0  0  0
   -0.6170   -2.3710    7.4935 C   0  0  0  0  0  0  0  0  0  0  0  0
    0.5326   -4.8588    4.9909 N   0  0  0  0  0  0  0  0  0  0  0  0
    0.3608   -6.2664    5.2784 C   0  0  0  0  0  0  0  0  0  0  0  0
    1.5608   -4.3980    4.0675 C   0  0  0  0  0  0  0  0  0  0  0  0
    2.3575   -5.1753    3.5374 O   0  0  0  0  0  0  0  0  0  0  0  0
    1.5749   -3.0392    3.8234 O   0  0  0  0  0  0  0  0  0  0  0  0
    2.4556   -2.3862    2.9658 C   0  0  0  0  0  0  0  0  0  0  0  0
    2.0424   -0.9356    2.9874 C   0  0  0  0  0  0  0  0  0  0  0  0
    1.0112   -0.6277    2.0957 C   0  0  0  0  0  0  0  0  0  0  0  0
    0.5433    0.6585    2.0303 C   0  0  0  0  0  0  0  0  0  0  0  0
    1.1205    1.6264    2.8656 C   0  0  0  0  0  0  0  0  0  0  0  0
    2.1363    1.3327    3.7439 C   0  0  0  0  0  0  0  0  0  0  0  0
    2.5977    0.0082    3.7933 C   0  0  0  0  0  0  0  0  0  0  0  0
    0.5359    2.9309    2.7349 N   0  0  0  0  0  0  0  0  0  0  0  0
    1.0019    3.7412    1.6812 C   0  0  0  0  0  0  0  0  0  0  0  0
    1.9075    3.2625    0.9316 O   0  0  0  0  0  0  0  0  0  0  0  0
    0.4603    5.1287    1.4214 C   0  0  1  0  0  0  0  0  0  0  0  0
    0.7803    6.0077    2.5734 C   0  0  0  0  0  0  0  0  0  0  0  0
    0.2862    7.4219    2.4181 C   0  0  0  0  0  0  0  0  0  0  0  0
   -1.2121    7.4892    2.2628 C   0  0  0  0  0  0  0  0  0  0  0  0
   -1.9003    6.9289    3.3970 N   0  0  0  0  0  0  0  0  0  0  0  0
   -1.7350    7.4523    4.7054 C   0  0  0  0  0  0  0  0  0  0  0  0
   -0.9865    8.4307    4.9591 O   0  0  0  0  0  0  0  0  0  0  0  0
   -2.4613    6.8233    5.7712 N   0  0  0  0  0  0  0  0  0  0  0  0
    1.0981    5.5483    0.1654 N   0  0  0  0  0  0  0  0  0  0  0  0
    0.2428    5.4732   -0.9805 C   0  0  0  0  0  0  0  0  0  0  0  0
   -0.9595    5.0839   -0.9014 O   0  0  0  0  0  0  0  0  0  0  0  0
    0.8056    5.8701   -2.3139 C   0  0  1  0  0  0  0  0  0  0  0  0
   -0.0978    6.7529   -3.0916 C   0  0  0  0  0  0  0  0  0  0  0  0
   -1.4282    6.0403   -3.3574 C   0  0  0  0  0  0  0  0  0  0  0  0
   -0.4502    8.0171   -2.3238 C   0  0  0  0  0  0  0  0  0  0  0  0
    2.1520    6.3529   -2.1868 N   0  0  0  0  0  0  0  0  0  0  0  0
    3.2383    5.4645   -2.3812 C   0  0  0  0  0  0  0  0  0  0  0  0
    3.0262    4.2736   -2.6612 O   0  0  0  0  0  0  0  0  0  0  0  0
    4.6262    5.9382   -2.2520 C   0  0  0  0  0  0  0  0  0  0  0  0
    5.5176    4.6927   -2.2940 C   0  0  0  0  0  0  0  0  0  0  0  0
    6.9623    5.1492   -2.1586 C   0  0  0  0  0  0  0  0  0  0  0  0
    7.9362    4.0016   -2.1519 C   0  0  0  0  0  0  0  0  0  0  0  0
    9.3766    4.5148   -2.0202 C   0  0  0  0  0  0  0  0  0  0  0  0
    9.5475    5.2788   -0.8124 N   0  0  0  0  0  0  0  0  0  0  0  0
    9.9100    4.8829    0.4995 C   0  0  0  0  0  0  0  0  0  0  0  0
   10.1626    3.6851    0.8541 O   0  0  0  0  0  0  0  0  0  0  0  0
    9.9356    6.0848    1.3353 C   0  0  0  0  0  0  0  0  0  0  0  0
    9.6218    7.1559    0.6339 C   0  0  0  0  0  0  0  0  0  0  0  0
    9.3657    6.7041   -0.7361 C   0  0  0  0  0  0  0  0  0  0  0  0
    9.0354    7.4587   -1.7019 O   0  0  0  0  0  0  0  0  0  0  0  0
   -4.6979    1.6545    3.3521 H   0  0  0  0  0  0  0  0  0  0  0  0
   -5.2701    0.0508    3.8081 H   0  0  0  0  0  0  0  0  0  0  0  0
   -5.4482    0.5132    2.1190 H   0  0  0  0  0  0  0  0  0  0  0  0
   -2.6513    0.6970    3.1617 H   0  0  0  0  0  0  0  0  0  0  0  0
   -3.3144   -0.9253    3.3866 H   0  0  0  0  0  0  0  0  0  0  0  0
   -2.0465   -0.6375    1.2725 H   0  0  0  0  0  0  0  0  0  0  0  0
   -4.1704    1.3439    0.2932 H   0  0  0  0  0  0  0  0  0  0  0  0
   -2.8979    1.8605    1.3641 H   0  0  0  0  0  0  0  0  0  0  0  0
   -2.4129    1.2303   -0.1861 H   0  0  0  0  0  0  0  0  0  0  0  0
   -5.0258   -0.7318    0.5883 H   0  0  0  0  0  0  0  0  0  0  0  0
   -4.8400   -2.2616   -0.9619 H   0  0  0  0  0  0  0  0  0  0  0  0
   -3.9258    0.0374   -1.5358 H   0  0  0  0  0  0  0  0  0  0  0  0
   -2.2185   -0.6791   -1.3241 H   0  0  0  0  0  0  0  0  0  0  0  0
   -0.8940    0.8132   -3.4915 H   0  0  0  0  0  0  0  0  0  0  0  0
   -2.4602    1.2389   -2.5833 H   0  0  0  0  0  0  0  0  0  0  0  0
   -3.4303    2.0275   -4.7117 H   0  0  0  0  0  0  0  0  0  0  0  0
   -1.7263    2.6936   -4.6953 H   0  0  0  0  0  0  0  0  0  0  0  0
   -0.8418    0.7859   -5.8221 H   0  0  0  0  0  0  0  0  0  0  0  0
   -2.3482    1.1789   -6.7598 H   0  0  0  0  0  0  0  0  0  0  0  0
   -3.5267   -0.5242   -5.8061 H   0  0  0  0  0  0  0  0  0  0  0  0
   -0.5438   -1.0292   -6.0638 H   0  0  0  0  0  0  0  0  0  0  0  0
   -2.4050   -3.4573   -5.6443 H   0  0  0  0  0  0  0  0  0  0  0  0
   -0.5539   -4.6054   -6.6473 H   0  0  0  0  0  0  0  0  0  0  0  0
   -1.0846   -3.4533   -7.8526 H   0  0  0  0  0  0  0  0  0  0  0  0
    0.4111   -3.1465   -6.7711 H   0  0  0  0  0  0  0  0  0  0  0  0
   -0.8512   -5.1509   -4.7128 H   0  0  0  0  0  0  0  0  0  0  0  0
    0.9498   -3.6210   -2.7024 H   0  0  0  0  0  0  0  0  0  0  0  0
    1.9422   -6.2285   -2.6695 H   0  0  0  0  0  0  0  0  0  0  0  0
    1.4156   -5.9969   -4.3876 H   0  0  0  0  0  0  0  0  0  0  0  0
    2.5355   -4.8121   -3.7186 H   0  0  0  0  0  0  0  0  0  0  0  0
   -0.7943   -4.4738   -1.2474 H   0  0  0  0  0  0  0  0  0  0  0  0
   -0.5753   -7.1383   -3.7647 H   0  0  0  0  0  0  0  0  0  0  0  0
   -1.3799   -9.3792   -3.4114 H   0  0  0  0  0  0  0  0  0  0  0  0
   -1.8325  -10.2243   -1.1671 H   0  0  0  0  0  0  0  0  0  0  0  0
   -1.4667   -8.7451    0.7525 H   0  0  0  0  0  0  0  0  0  0  0  0
   -0.6614   -6.4516    0.4381 H   0  0  0  0  0  0  0  0  0  0  0  0
    1.5062   -4.2978   -0.9284 H   0  0  0  0  0  0  0  0  0  0  0  0
   -1.2549   -0.7238   -9.3554 H   0  0  0  0  0  0  0  0  0  0  0  0
   -0.5912    0.2508   -8.0686 H   0  0  0  0  0  0  0  0  0  0  0  0
   -0.0138   -1.4156   -8.3256 H   0  0  0  0  0  0  0  0  0  0  0  0
   -4.5170   -4.3064   -0.0361 H   0  0  0  0  0  0  0  0  0  0  0  0
   -2.9486   -4.9891   -0.4463 H   0  0  0  0  0  0  0  0  0  0  0  0
   -3.8817   -4.3071   -1.7662 H   0  0  0  0  0  0  0  0  0  0  0  0
   -6.2531   -3.3790    1.5654 H   0  0  0  0  0  0  0  0  0  0  0  0
   -6.4274   -1.6519    1.8590 H   0  0  0  0  0  0  0  0  0  0  0  0
   -5.8963   -2.7737    3.2041 H   0  0  0  0  0  0  0  0  0  0  0  0
   -4.0038   -3.4935    4.2453 H   0  0  0  0  0  0  0  0  0  0  0  0
   -5.3050   -5.0870    2.9257 H   0  0  0  0  0  0  0  0  0  0  0  0
   -3.4399   -6.8199    4.4744 H   0  0  0  0  0  0  0  0  0  0  0  0
   -4.4464   -5.5590    5.3612 H   0  0  0  0  0  0  0  0  0  0  0  0
   -5.2209   -6.8534    4.4082 H   0  0  0  0  0  0  0  0  0  0  0  0
   -2.7481   -5.7264    1.7473 H   0  0  0  0  0  0  0  0  0  0  0  0
   -3.5276   -7.2250    2.4622 H   0  0  0  0  0  0  0  0  0  0  0  0
   -4.4056   -6.2515    1.2684 H   0  0  0  0  0  0  0  0  0  0  0  0
   -1.5266   -5.0478    3.3370 H   0  0  0  0  0  0  0  0  0  0  0  0
    0.1675   -2.8886    5.2548 H   0  0  0  0  0  0  0  0  0  0  0  0
    0.8257   -3.9284    7.3968 H   0  0  0  0  0  0  0  0  0  0  0  0
   -0.4268   -5.3586    8.5938 H   0  0  0  0  0  0  0  0  0  0  0  0
   -1.8476   -4.2802    8.4014 H   0  0  0  0  0  0  0  0  0  0  0  0
   -1.6070   -5.5258    7.1610 H   0  0  0  0  0  0  0  0  0  0  0  0
    0.1007   -1.9650    8.2189 H   0  0  0  0  0  0  0  0  0  0  0  0
   -1.6404   -2.3113    7.8626 H   0  0  0  0  0  0  0  0  0  0  0  0
   -0.5307   -1.6955    6.5938 H   0  0  0  0  0  0  0  0  0  0  0  0
   -0.5934   -6.5990    4.8717 H   0  0  0  0  0  0  0  0  0  0  0  0
    0.4713   -6.4396    6.3721 H   0  0  0  0  0  0  0  0  0  0  0  0
    1.1501   -6.8962    4.8124 H   0  0  0  0  0  0  0  0  0  0  0  0
    2.4500   -2.7089    1.9270 H   0  0  0  0  0  0  0  0  0  0  0  0
    3.4671   -2.4130    3.4510 H   0  0  0  0  0  0  0  0  0  0  0  0
    0.5583   -1.3555    1.4521 H   0  0  0  0  0  0  0  0  0  0  0  0
   -0.2611    0.9315    1.3387 H   0  0  0  0  0  0  0  0  0  0  0  0
    2.5535    2.1060    4.3685 H   0  0  0  0  0  0  0  0  0  0  0  0
    3.3941   -0.2802    4.4684 H   0  0  0  0  0  0  0  0  0  0  0  0
   -0.2016    3.2673    3.3894 H   0  0  0  0  0  0  0  0  0  0  0  0
   -0.6281    4.9878    1.2848 H   0  0  0  0  0  0  0  0  0  0  0  0
    0.3703    5.5756    3.4921 H   0  0  0  0  0  0  0  0  0  0  0  0
    1.8906    6.0813    2.6518 H   0  0  0  0  0  0  0  0  0  0  0  0
    0.6418    7.9930    3.2914 H   0  0  0  0  0  0  0  0  0  0  0  0
    0.7721    7.8359    1.5134 H   0  0  0  0  0  0  0  0  0  0  0  0
   -1.4684    8.5840    2.1353 H   0  0  0  0  0  0  0  0  0  0  0  0
   -1.4796    6.9963    1.3135 H   0  0  0  0  0  0  0  0  0  0  0  0
   -2.5500    6.1025    3.2700 H   0  0  0  0  0  0  0  0  0  0  0  0
   -3.3444    6.2918    5.6080 H   0  0  0  0  0  0  0  0  0  0  0  0
   -2.1310    6.8686    6.7673 H   0  0  0  0  0  0  0  0  0  0  0  0
    2.0773    5.8645    0.1437 H   0  0  0  0  0  0  0  0  0  0  0  0
    0.8911    4.8746   -2.8528 H   0  0  0  0  0  0  0  0  0  0  0  0
    0.3800    7.0391   -4.0373 H   0  0  0  0  0  0  0  0  0  0  0  0
   -1.2281    4.9490   -3.2372 H   0  0  0  0  0  0  0  0  0  0  0  0
   -1.7530    6.2777   -4.3819 H   0  0  0  0  0  0  0  0  0  0  0  0
   -2.1738    6.3338   -2.5932 H   0  0  0  0  0  0  0  0  0  0  0  0
   -0.6589    8.7920   -3.0601 H   0  0  0  0  0  0  0  0  0  0  0  0
    0.3949    8.2715   -1.6350 H   0  0  0  0  0  0  0  0  0  0  0  0
   -1.3949    7.8536   -1.7443 H   0  0  0  0  0  0  0  0  0  0  0  0
    2.2806    7.3704   -1.9483 H   0  0  0  0  0  0  0  0  0  0  0  0
    4.8149    6.5268   -1.3366 H   0  0  0  0  0  0  0  0  0  0  0  0
    4.9111    6.5430   -3.1365 H   0  0  0  0  0  0  0  0  0  0  0  0
    5.3342    4.1872   -3.2596 H   0  0  0  0  0  0  0  0  0  0  0  0
    5.3002    4.0210   -1.4562 H   0  0  0  0  0  0  0  0  0  0  0  0
    7.0002    5.7274   -1.2130 H   0  0  0  0  0  0  0  0  0  0  0  0
    7.1716    5.8304   -3.0095 H   0  0  0  0  0  0  0  0  0  0  0  0
    7.7593    3.3081   -1.3257 H   0  0  0  0  0  0  0  0  0  0  0  0
    7.8678    3.4223   -3.0884 H   0  0  0  0  0  0  0  0  0  0  0  0
    9.6308    5.0848   -2.9410 H   0  0  0  0  0  0  0  0  0  0  0  0
   10.0743    3.6341   -1.9897 H   0  0  0  0  0  0  0  0  0  0  0  0
   10.1743    6.1408    2.3926 H   0  0  0  0  0  0  0  0  0  0  0  0
    9.5480    8.2007    0.9498 H   0  0  0  0  0  0  0  0  0  0  0  0
  1  2  1  0
  2  3  1  0
  3  4  1  0
  3  5  1  0
  5  6  1  0
  6  7  1  0
  7  8  1  0
  8  9  2  0
  8 10  1  0
 10 11  1  0
 11 12  1  0
 12 13  1  0
 13 14  1  0
 14 15  1  0
 15 16  1  0
 16 17  1  0
 16 18  1  0
 18 19  2  0
 18 20  1  0
 20 21  1  0
 21 22  1  0
 21 23  1  0
 23 24  1  0
 24 25  2  0
 25 26  1  0
 26 27  2  0
 27 28  1  0
 28 29  2  0
 23 30  1  0
 15 31  1  0
 31 32  1  0
  6 33  1  0
 33 34  1  0
  5 35  1  0
 35 36  1  0
 35 37  1  0
 37 38  2  0
 37 39  1  0
 39 40  1  0
 40 41  1  0
 40 42  1  0
 39 43  1  0
 43 44  1  0
 44 45  2  0
 44 46  1  0
 46 47  1  0
 47 48  1  0
 47 49  1  0
 46 50  1  0
 50 51  1  0
 50 52  1  0
 52 53  2  0
 52 54  1  0
 54 55  1  0
 55 56  1  0
 56 57  1  0
 57 58  2  0
 58 59  1  0
 59 60  2  0
 60 61  1  0
 59 62  1  0
 62 63  1  0
 63 64  2  0
 63 65  1  0
 65 66  1  0
 66 67  1  0
 67 68  1  0
 68 69  1  0
 69 70  1  0
 70 71  2  0
 70 72  1  0
 65 73  1  0
 73 74  1  0
 74 75  2  0
 74 76  1  0
 76 77  1  0
 77 78  1  0
 77 79  1  0
 76 80  1  0
 80 81  1  0
 81 82  2  0
 81 83  1  0
 83 84  1  0
 84 85  1  0
 85 86  1  0
 86 87  1  0
 87 88  1  0
 88 89  1  0
 89 90  2  0
 89 91  1  0
 91 92  2  0
 92 93  1  0
 93 94  2  0
 14 10  1  0
 29 24  1  0
 61 56  2  0
 93 88  1  0
  1 95  1  0
  1 96  1  0
  1 97  1  0
  2 98  1  0
  2 99  1  0
  3100  1  1
  4101  1  0
  4102  1  0
  4103  1  0
  5104  1  6
  6105  1  6
  7106  1  0
  7107  1  0
 11108  1  0
 11109  1  0
 12110  1  0
 12111  1  0
 13112  1  0
 13113  1  0
 14114  1  6
 15115  1  6
 16116  1  1
 17117  1  0
 17118  1  0
 17119  1  0
 20120  1  0
 21121  1  1
 22122  1  0
 22123  1  0
 22124  1  0
 23125  1  1
 25126  1  0
 26127  1  0
 27128  1  0
 28129  1  0
 29130  1  0
 30131  1  0
 32132  1  0
 32133  1  0
 32134  1  0
 34135  1  0
 34136  1  0
 34137  1  0
 36138  1  0
 36139  1  0
 36140  1  0
 39141  1  1
 40142  1  0
 41143  1  0
 41144  1  0
 41145  1  0
 42146  1  0
 42147  1  0
 42148  1  0
 43149  1  0
 46150  1  6
 47151  1  0
 48152  1  0
 48153  1  0
 48154  1  0
 49155  1  0
 49156  1  0
 49157  1  0
 51158  1  0
 51159  1  0
 51160  1  0
 55161  1  0
 55162  1  0
 57163  1  0
 58164  1  0
 60165  1  0
 61166  1  0
 62167  1  0
 65168  1  6
 66169  1  0
 66170  1  0
 67171  1  0
 67172  1  0
 68173  1  0
 68174  1  0
 69175  1  0
 72176  1  0
 72177  1  0
 73178  1  0
 76179  1  6
 77180  1  0
 78181  1  0
 78182  1  0
 78183  1  0
 79184  1  0
 79185  1  0
 79186  1  0
 80187  1  0
 83188  1  0
 83189  1  0
 84190  1  0
 84191  1  0
 85192  1  0
 85193  1  0
 86194  1  0
 86195  1  0
 87196  1  0
 87197  1  0
 91198  1  0
 92199  1  0
M  END
$$$$

     RDKit          3D

199202  0  0  0  0  0  0  0  0999 V2000
   -6.4759   -4.6268    2.5916 C   0  0  0  0  0  0  0  0  0  0  0  0
   -5.6713   -3.9145    3.6552 C   0  0  0  0  0  0  0  0  0  0  0  0
   -5.2922   -2.5506    3.1011 C   0  0  2  0  0  0  0  0  0  0  0  0
   -6.5838   -1.8143    2.7915 C   0  0  0  0  0  0  0  0  0  0  0  0
   -4.3610   -2.6074    2.0014 C   0  0  1  0  0  0  0  0  0  0  0  0
   -3.9456   -1.2458    1.3890 C   0  0  1  0  0  0  0  0  0  0  0  0
   -2.8141   -0.5838    2.0209 C   0  0  0  0  0  0  0  0  0  0  0  0
   -2.3640    0.7153    1.4457 C   0  0  0  0  0  0  0  0  0  0  0  0
   -2.9330    1.7730    1.9140 O   0  0  0  0  0  0  0  0  0  0  0  0
   -1.3544    0.8106    0.4336 N   0  0  0  0  0  0  0  0  0  0  0  0
   -0.7404   -0.2965   -0.2054 C   0  0  0  0  0  0  0  0  0  0  0  0
    0.6914    0.1270   -0.3566 C   0  0  0  0  0  0  0  0  0  0  0  0
    0.6299    1.6168   -0.4303 C   0  0  0  0  0  0  0  0  0  0  0  0
   -0.7812    2.0411   -0.0068 C   0  0  1  0  0  0  0  0  0  0  0  0
   -1.5154    2.6945   -1.1038 C   0  0  1  0  0  0  0  0  0  0  0  0
   -1.0304    4.1229   -1.3475 C   0  0  1  0  0  0  0  0  0  0  0  0
   -1.8371    4.7028   -2.4784 C   0  0  0  0  0  0  0  0  0  0  0  0
   -1.2739    4.9606   -0.1311 C   0  0  0  0  0  0  0  0  0  0  0  0
   -1.9430    4.5085    0.8629 O   0  0  0  0  0  0  0  0  0  0  0  0
   -0.7819    6.2902   -0.0060 N   0  0  0  0  0  0  0  0  0  0  0  0
   -1.1276    6.9299    1.3013 C   0  0  2  0  0  0  0  0  0  0  0  0
   -0.6710    6.0546    2.4151 C   0  0  0  0  0  0  0  0  0  0  0  0
   -2.5501    7.3082    1.2548 C   0  0  1  0  0  0  0  0  0  0  0  0
   -3.2038    7.8104    2.4604 C   0  0  0  0  0  0  0  0  0  0  0  0
   -2.6488    7.9818    3.7011 C   0  0  0  0  0  0  0  0  0  0  0  0
   -3.3908    8.4418    4.7681 C   0  0  0  0  0  0  0  0  0  0  0  0
   -4.7176    8.7429    4.6144 C   0  0  0  0  0  0  0  0  0  0  0  0
   -5.3253    8.5836    3.3722 C   0  0  0  0  0  0  0  0  0  0  0  0
   -4.5573    8.1276    2.3435 C   0  0  0  0  0  0  0  0  0  0  0  0
   -2.7060    8.2170    0.1629 O   0  0  0  0  0  0  0  0  0  0  0  0
   -1.5747    2.0330   -2.2825 O   0  0  0  0  0  0  0  0  0  0  0  0
   -2.8081    1.7045   -2.7781 C   0  0  0  0  0  0  0  0  0  0  0  0
   -3.5478   -1.5177    0.0345 O   0  0  0  0  0  0  0  0  0  0  0  0
   -4.6017   -0.9820   -0.7076 C   0  0  0  0  0  0  0  0  0  0  0  0
   -3.2174   -3.4956    2.0533 N   0  0  0  0  0  0  0  0  0  0  0  0
   -2.3888   -3.4201    3.2268 C   0  0  0  0  0  0  0  0  0  0  0  0
   -3.0308   -4.3678    0.9624 C   0  0  0  0  0  0  0  0  0  0  0  0
   -3.8393   -4.3092   -0.0118 O   0  0  0  0  0  0  0  0  0  0  0  0
   -1.9433   -5.3731    0.8287 C   0  0  1  0  0  0  0  0  0  0  0  0
   -2.2749   -6.5643    1.7017 C   0  0  0  0  0  0  0  0  0  0  0  0
   -1.1909   -7.6208    1.5972 C   0  0  0  0  0  0  0  0  0  0  0  0
   -3.5866   -7.1627    1.2466 C   0  0  0  0  0  0  0  0  0  0  0  0
   -1.9289   -5.8669   -0.5743 N   0  0  0  0  0  0  0  0  0  0  0  0
   -0.7963   -5.5382   -1.3781 C   0  0  0  0  0  0  0  0  0  0  0  0
    0.1048   -4.8659   -0.7775 O   0  0  0  0  0  0  0  0  0  0  0  0
   -0.6168   -5.9134   -2.7732 C   0  0  1  0  0  0  0  0  0  0  0  0
   -1.6263   -5.3557   -3.7308 C   0  0  0  0  0  0  0  0  0  0  0  0
   -3.0432   -5.7707   -3.4827 C   0  0  0  0  0  0  0  0  0  0  0  0
   -1.5530   -3.8732   -3.9451 C   0  0  0  0  0  0  0  0  0  0  0  0
    0.7228   -5.5882   -3.2703 N   0  0  0  0  0  0  0  0  0  0  0  0
    1.2677   -4.2517   -3.2650 C   0  0  0  0  0  0  0  0  0  0  0  0
    1.5097   -6.7333   -3.7607 C   0  0  0  0  0  0  0  0  0  0  0  0
    0.8468   -7.8200   -3.6032 O   0  0  0  0  0  0  0  0  0  0  0  0
    2.6589   -6.7271   -4.2735 O   0  0  0  0  0  0  0  0  0  0  0  0
    3.8824   -6.7618   -4.8250 C   0  0  0  0  0  0  0  0  0  0  0  0
    4.3833   -5.2987   -4.8022 C   0  0  0  0  0  0  0  0  0  0  0  0
    5.1755   -4.8812   -3.7689 C   0  0  0  0  0  0  0  0  0  0  0  0
    5.4243   -3.5038   -3.6946 C   0  0  0  0  0  0  0  0  0  0  0  0
    4.8916   -2.6100   -4.6264 C   0  0  0  0  0  0  0  0  0  0  0  0
    4.1012   -3.1322   -5.6582 C   0  0  0  0  0  0  0  0  0  0  0  0
    3.8378   -4.4826   -5.7562 C   0  0  0  0  0  0  0  0  0  0  0  0
    5.0731   -1.2428   -4.3953 N   0  0  0  0  0  0  0  0  0  0  0  0
    4.7492   -0.1652   -5.2397 C   0  0  0  0  0  0  0  0  0  0  0  0
    4.2706   -0.4317   -6.3682 O   0  0  0  0  0  0  0  0  0  0  0  0
    4.9215    1.2670   -4.8956 C   0  0  1  0  0  0  0  0  0  0  0  0
    3.5772    1.9818   -4.8391 C   0  0  0  0  0  0  0  0  0  0  0  0
    2.7991    1.9539   -6.1016 C   0  0  0  0  0  0  0  0  0  0  0  0
    1.4961    2.7234   -5.8182 C   0  0  0  0  0  0  0  0  0  0  0  0
    0.6713    2.6736   -7.0036 N   0  0  0  0  0  0  0  0  0  0  0  0
   -0.6042    3.2820   -7.0989 C   0  0  0  0  0  0  0  0  0  0  0  0
   -0.9987    3.9022   -6.0537 O   0  0  0  0  0  0  0  0  0  0  0  0
   -1.4058    3.2138   -8.2730 N   0  0  0  0  0  0  0  0  0  0  0  0
    5.4475    1.3787   -3.5425 N   0  0  0  0  0  0  0  0  0  0  0  0
    6.5908    2.1617   -3.1835 C   0  0  0  0  0  0  0  0  0  0  0  0
    7.2465    2.8368   -4.0247 O   0  0  0  0  0  0  0  0  0  0  0  0
    7.0177    2.1660   -1.7784 C   0  0  1  0  0  0  0  0  0  0  0  0
    8.4208    2.6786   -1.5759 C   0  0  0  0  0  0  0  0  0  0  0  0
    8.7659    2.6108   -0.0781 C   0  0  0  0  0  0  0  0  0  0  0  0
    8.6529    4.0654   -2.0849 C   0  0  0  0  0  0  0  0  0  0  0  0
    6.0434    2.7266   -0.8967 N   0  0  0  0  0  0  0  0  0  0  0  0
    5.3779    1.9682    0.0930 C   0  0  0  0  0  0  0  0  0  0  0  0
    5.6225    0.7456    0.1709 O   0  0  0  0  0  0  0  0  0  0  0  0
    4.4055    2.5360    1.0624 C   0  0  0  0  0  0  0  0  0  0  0  0
    3.9539    1.3732    1.9044 C   0  0  0  0  0  0  0  0  0  0  0  0
    3.0596    1.7534    3.0538 C   0  0  0  0  0  0  0  0  0  0  0  0
    2.6597    0.4733    3.7472 C   0  0  0  0  0  0  0  0  0  0  0  0
    1.8215    0.7352    4.9731 C   0  0  0  0  0  0  0  0  0  0  0  0
    2.4836    1.5016    5.9906 N   0  0  0  0  0  0  0  0  0  0  0  0
    2.5570    2.8893    6.2631 C   0  0  0  0  0  0  0  0  0  0  0  0
    1.9939    3.7636    5.5911 O   0  0  0  0  0  0  0  0  0  0  0  0
    3.3912    3.1281    7.4411 C   0  0  0  0  0  0  0  0  0  0  0  0
    3.8276    1.9468    7.8956 C   0  0  0  0  0  0  0  0  0  0  0  0
    3.2970    0.8893    7.0340 C   0  0  0  0  0  0  0  0  0  0  0  0
    3.5124   -0.3323    7.1773 O   0  0  0  0  0  0  0  0  0  0  0  0
   -7.5028   -4.1726    2.5272 H   0  0  0  0  0  0  0  0  0  0  0  0
   -5.9370   -4.6146    1.6558 H   0  0  0  0  0  0  0  0  0  0  0  0
   -6.5810   -5.7023    2.9296 H   0  0  0  0  0  0  0  0  0  0  0  0
   -6.3563   -3.7818    4.5388 H   0  0  0  0  0  0  0  0  0  0  0  0
   -4.8258   -4.5425    3.9289 H   0  0  0  0  0  0  0  0  0  0  0  0
   -4.8913   -1.9829    4.0129 H   0  0  0  0  0  0  0  0  0  0  0  0
   -7.2244   -1.8924    3.6938 H   0  0  0  0  0  0  0  0  0  0  0  0
   -7.1313   -2.2261    1.9451 H   0  0  0  0  0  0  0  0  0  0  0  0
   -6.3649   -0.7081    2.6845 H   0  0  0  0  0  0  0  0  0  0  0  0
   -4.9147   -3.0244    1.0521 H   0  0  0  0  0  0  0  0  0  0  0  0
   -4.8398   -0.6194    1.3093 H   0  0  0  0  0  0  0  0  0  0  0  0
   -1.8809   -1.2103    2.0742 H   0  0  0  0  0  0  0  0  0  0  0  0
   -3.0666   -0.3488    3.1070 H   0  0  0  0  0  0  0  0  0  0  0  0
   -1.1482   -0.5031   -1.2156 H   0  0  0  0  0  0  0  0  0  0  0  0
   -0.8363   -1.2607    0.3365 H   0  0  0  0  0  0  0  0  0  0  0  0
    1.1233   -0.3306   -1.2839 H   0  0  0  0  0  0  0  0  0  0  0  0
    1.2673   -0.2153    0.5292 H   0  0  0  0  0  0  0  0  0  0  0  0
    0.9151    2.0095   -1.4076 H   0  0  0  0  0  0  0  0  0  0  0  0
    1.3473    2.0237    0.3206 H   0  0  0  0  0  0  0  0  0  0  0  0
   -0.6761    2.6775    0.9141 H   0  0  0  0  0  0  0  0  0  0  0  0
   -2.5847    2.8457   -0.7339 H   0  0  0  0  0  0  0  0  0  0  0  0
    0.0194    4.1557   -1.6881 H   0  0  0  0  0  0  0  0  0  0  0  0
   -1.4557    5.7256   -2.7254 H   0  0  0  0  0  0  0  0  0  0  0  0
   -1.6367    4.1010   -3.3867 H   0  0  0  0  0  0  0  0  0  0  0  0
   -2.9183    4.7279   -2.2652 H   0  0  0  0  0  0  0  0  0  0  0  0
   -0.2470    6.7612   -0.7244 H   0  0  0  0  0  0  0  0  0  0  0  0
   -0.4833    7.8405    1.3216 H   0  0  0  0  0  0  0  0  0  0  0  0
    0.0890    6.5869    3.0297 H   0  0  0  0  0  0  0  0  0  0  0  0
   -0.0880    5.1831    1.9543 H   0  0  0  0  0  0  0  0  0  0  0  0
   -1.4400    5.5698    3.0185 H   0  0  0  0  0  0  0  0  0  0  0  0
   -3.2031    6.4471    0.8974 H   0  0  0  0  0  0  0  0  0  0  0  0
   -1.6251    7.7748    3.8712 H   0  0  0  0  0  0  0  0  0  0  0  0
   -2.9265    8.5593    5.7311 H   0  0  0  0  0  0  0  0  0  0  0  0
   -5.3586    9.0993    5.4150 H   0  0  0  0  0  0  0  0  0  0  0  0
   -6.3762    8.8337    3.2711 H   0  0  0  0  0  0  0  0  0  0  0  0
   -5.0502    8.0088    1.3641 H   0  0  0  0  0  0  0  0  0  0  0  0
   -1.9888    8.0041   -0.5049 H   0  0  0  0  0  0  0  0  0  0  0  0
   -3.3981    1.0706   -2.1176 H   0  0  0  0  0  0  0  0  0  0  0  0
   -2.6493    1.1218   -3.7403 H   0  0  0  0  0  0  0  0  0  0  0  0
   -3.4037    2.5804   -3.0764 H   0  0  0  0  0  0  0  0  0  0  0  0
   -5.5619   -1.5090   -0.4439 H   0  0  0  0  0  0  0  0  0  0  0  0
   -4.4889   -1.0356   -1.7891 H   0  0  0  0  0  0  0  0  0  0  0  0
   -4.7364    0.0979   -0.4305 H   0  0  0  0  0  0  0  0  0  0  0  0
   -1.3042   -3.3185    2.9794 H   0  0  0  0  0  0  0  0  0  0  0  0
   -2.6375   -2.5130    3.8524 H   0  0  0  0  0  0  0  0  0  0  0  0
   -2.4440   -4.3211    3.8833 H   0  0  0  0  0  0  0  0  0  0  0  0
   -0.9601   -4.9651    1.0285 H   0  0  0  0  0  0  0  0  0  0  0  0
   -2.3366   -6.2623    2.7624 H   0  0  0  0  0  0  0  0  0  0  0  0
   -0.3076   -7.2405    1.0309 H   0  0  0  0  0  0  0  0  0  0  0  0
   -1.6335   -8.5149    1.1478 H   0  0  0  0  0  0  0  0  0  0  0  0
   -0.8637   -7.8922    2.6202 H   0  0  0  0  0  0  0  0  0  0  0  0
   -4.1315   -6.5557    0.5054 H   0  0  0  0  0  0  0  0  0  0  0  0
   -3.4385   -8.1811    0.8161 H   0  0  0  0  0  0  0  0  0  0  0  0
   -4.2647   -7.2519    2.1338 H   0  0  0  0  0  0  0  0  0  0  0  0
   -2.6984   -6.4455   -0.9542 H   0  0  0  0  0  0  0  0  0  0  0  0
   -0.6983   -7.0340   -2.8688 H   0  0  0  0  0  0  0  0  0  0  0  0
   -1.3642   -5.8191   -4.7417 H   0  0  0  0  0  0  0  0  0  0  0  0
   -3.5672   -5.2035   -2.6892 H   0  0  0  0  0  0  0  0  0  0  0  0
   -3.1707   -6.8500   -3.2804 H   0  0  0  0  0  0  0  0  0  0  0  0
   -3.6101   -5.5949   -4.4583 H   0  0  0  0  0  0  0  0  0  0  0  0
   -1.0600   -3.6105   -4.9259 H   0  0  0  0  0  0  0  0  0  0  0  0
   -1.1983   -3.2923   -3.0910 H   0  0  0  0  0  0  0  0  0  0  0  0
   -2.6158   -3.5046   -4.1047 H   0  0  0  0  0  0  0  0  0  0  0  0
    0.9881   -3.6219   -2.4219 H   0  0  0  0  0  0  0  0  0  0  0  0
    2.3826   -4.3972   -3.1192 H   0  0  0  0  0  0  0  0  0  0  0  0
    1.1556   -3.6881   -4.2069 H   0  0  0  0  0  0  0  0  0  0  0  0
    4.6570   -7.3264   -4.3016 H   0  0  0  0  0  0  0  0  0  0  0  0
    3.8214   -7.0270   -5.9077 H   0  0  0  0  0  0  0  0  0  0  0  0
    5.5935   -5.5723   -3.0444 H   0  0  0  0  0  0  0  0  0  0  0  0
    6.0534   -3.1760   -2.8879 H   0  0  0  0  0  0  0  0  0  0  0  0
    3.6616   -2.5053   -6.4092 H   0  0  0  0  0  0  0  0  0  0  0  0
    3.2147   -4.9035   -6.5631 H   0  0  0  0  0  0  0  0  0  0  0  0
    5.5142   -0.9749   -3.4669 H   0  0  0  0  0  0  0  0  0  0  0  0
    5.5003    1.7627   -5.6664 H   0  0  0  0  0  0  0  0  0  0  0  0
    2.9501    1.5383   -4.0143 H   0  0  0  0  0  0  0  0  0  0  0  0
    3.7314    3.0403   -4.5543 H   0  0  0  0  0  0  0  0  0  0  0  0
    3.3012    2.5048   -6.9187 H   0  0  0  0  0  0  0  0  0  0  0  0
    2.4849    0.9452   -6.3855 H   0  0  0  0  0  0  0  0  0  0  0  0
    1.7907    3.7780   -5.6417 H   0  0  0  0  0  0  0  0  0  0  0  0
    0.9605    2.2547   -4.9814 H   0  0  0  0  0  0  0  0  0  0  0  0
    1.0279    2.1628   -7.8597 H   0  0  0  0  0  0  0  0  0  0  0  0
   -1.4458    3.9564   -8.9997 H   0  0  0  0  0  0  0  0  0  0  0  0
   -1.9855    2.3649   -8.3869 H   0  0  0  0  0  0  0  0  0  0  0  0
    4.9075    0.8211   -2.8086 H   0  0  0  0  0  0  0  0  0  0  0  0
    7.1260    1.0355   -1.5401 H   0  0  0  0  0  0  0  0  0  0  0  0
    9.1071    1.9797   -2.0844 H   0  0  0  0  0  0  0  0  0  0  0  0
    8.1039    3.2749    0.5211 H   0  0  0  0  0  0  0  0  0  0  0  0
    8.6728    1.5427    0.2673 H   0  0  0  0  0  0  0  0  0  0  0  0
    9.8016    2.9255    0.1199 H   0  0  0  0  0  0  0  0  0  0  0  0
    9.4399    4.5998   -1.4724 H   0  0  0  0  0  0  0  0  0  0  0  0
    9.0168    4.1088   -3.1305 H   0  0  0  0  0  0  0  0  0  0  0  0
    7.7096    4.6930   -2.0646 H   0  0  0  0  0  0  0  0  0  0  0  0
    5.8046    3.7646   -0.9905 H   0  0  0  0  0  0  0  0  0  0  0  0
    3.5227    2.9874    0.5263 H   0  0  0  0  0  0  0  0  0  0  0  0
    4.8768    3.2962    1.7211 H   0  0  0  0  0  0  0  0  0  0  0  0
    4.8787    0.9136    2.3278 H   0  0  0  0  0  0  0  0  0  0  0  0
    3.4303    0.6179    1.2703 H   0  0  0  0  0  0  0  0  0  0  0  0
    2.1751    2.2927    2.7087 H   0  0  0  0  0  0  0  0  0  0  0  0
    3.6790    2.3386    3.7858 H   0  0  0  0  0  0  0  0  0  0  0  0
    2.0616   -0.1946    3.0713 H   0  0  0  0  0  0  0  0  0  0  0  0
    3.5471   -0.1004    4.0768 H   0  0  0  0  0  0  0  0  0  0  0  0
    0.8871    1.2349    4.6366 H   0  0  0  0  0  0  0  0  0  0  0  0
    1.5035   -0.2248    5.4461 H   0  0  0  0  0  0  0  0  0  0  0  0
    3.6531    4.0637    7.9071 H   0  0  0  0  0  0  0  0  0  0  0  0
    4.4618    1.7807    8.7591 H   0  0  0  0  0  0  0  0  0  0  0  0
  1  2  1  0
  2  3  1  0
  3  4  1  0
  3  5  1  0
  5  6  1  0
  6  7  1  0
  7  8  1  0
  8  9  2  0
  8 10  1  0
 10 11  1  0
 11 12  1  0
 12 13  1  0
 13 14  1  0
 14 15  1  0
 15 16  1  0
 16 17  1  0
 16 18  1  0
 18 19  2  0
 18 20  1  0
 20 21  1  0
 21 22  1  0
 21 23  1  0
 23 24  1  0
 24 25  2  0
 25 26  1  0
 26 27  2  0
 27 28  1  0
 28 29  2  0
 23 30  1  0
 15 31  1  0
 31 32  1  0
  6 33  1  0
 33 34  1  0
  5 35  1  0
 35 36  1  0
 35 37  1  0
 37 38  2  0
 37 39  1  0
 39 40  1  0
 40 41  1  0
 40 42  1  0
 39 43  1  0
 43 44  1  0
 44 45  2  0
 44 46  1  0
 46 47  1  0
 47 48  1  0
 47 49  1  0
 46 50  1  0
 50 51  1  0
 50 52  1  0
 52 53  2  0
 52 54  1  0
 54 55  1  0
 55 56  1  0
 56 57  1  0
 57 58  2  0
 58 59  1  0
 59 60  2  0
 60 61  1  0
 59 62  1  0
 62 63  1  0
 63 64  2  0
 63 65  1  0
 65 66  1  0
 66 67  1  0
 67 68  1  0
 68 69  1  0
 69 70  1  0
 70 71  2  0
 70 72  1  0
 65 73  1  0
 73 74  1  0
 74 75  2  0
 74 76  1  0
 76 77  1  0
 77 78  1  0
 77 79  1  0
 76 80  1  0
 80 81  1  0
 81 82  2  0
 81 83  1  0
 83 84  1  0
 84 85  1  0
 85 86  1  0
 86 87  1  0
 87 88  1  0
 88 89  1  0
 89 90  2  0
 89 91  1  0
 91 92  2  0
 92 93  1  0
 93 94  2  0
 14 10  1  0
 29 24  1  0
 61 56  2  0
 93 88  1  0
  1 95  1  0
  1 96  1  0
  1 97  1  0
  2 98  1  0
  2 99  1  0
  3100  1  1
  4101  1  0
  4102  1  0
  4103  1  0
  5104  1  6
  6105  1  6
  7106  1  0
  7107  1  0
 11108  1  0
 11109  1  0
 12110  1  0
 12111  1  0
 13112  1  0
 13113  1  0
 14114  1  1
 15115  1  1
 16116  1  6
 17117  1  0
 17118  1  0
 17119  1  0
 20120  1  0
 21121  1  1
 22122  1  0
 22123  1  0
 22124  1  0
 23125  1  6
 25126  1  0
 26127  1  0
 27128  1  0
 28129  1  0
 29130  1  0
 30131  1  0
 32132  1  0
 32133  1  0
 32134  1  0
 34135  1  0
 34136  1  0
 34137  1  0
 36138  1  0
 36139  1  0
 36140  1  0
 39141  1  1
 40142  1  0
 41143  1  0
 41144  1  0
 41145  1  0
 42146  1  0
 42147  1  0
 42148  1  0
 43149  1  0
 46150  1  1
 47151  1  0
 48152  1  0
 48153  1  0
 48154  1  0
 49155  1  0
 49156  1  0
 49157  1  0
 51158  1  0
 51159  1  0
 51160  1  0
 55161  1  0
 55162  1  0
 57163  1  0
 58164  1  0
 60165  1  0
 61166  1  0
 62167  1  0
 65168  1  6
 66169  1  0
 66170  1  0
 67171  1  0
 67172  1  0
 68173  1  0
 68174  1  0
 69175  1  0
 72176  1  0
 72177  1  0
 73178  1  0
 76179  1  1
 77180  1  0
 78181  1  0
 78182  1  0
 78183  1  0
 79184  1  0
 79185  1  0
 79186  1  0
 80187  1  0
 83188  1  0
 83189  1  0
 84190  1  0
 84191  1  0
 85192  1  0
 85193  1  0
 86194  1  0
 86195  1  0
 87196  1  0
 87197  1  0
 91198  1  0
 92199  1  0
M  END
$$$$

     RDKit          3D

199202  0  0  0  0  0  0  0  0999 V2000
    2.5833    3.9586   -4.3895 C   0  0  0  0  0  0  0  0  0  0  0  0
    1.1078    4.3017   -4.3606 C   0  0  0  0  0  0  0  0  0  0  0  0
    0.7087    5.4147   -3.5530 C   0  0  2  0  0  0  0  0  0  0  0  0
    1.4459    6.7099   -3.9573 C   0  0  0  0  0  0  0  0  0  0  0  0
    0.1226    5.4596   -2.1779 C   0  0  1  0  0  0  0  0  0  0  0  0
   -1.1735    4.8368   -2.0537 C   0  0  1  0  0  0  0  0  0  0  0  0
   -2.2137    5.5183   -1.1548 C   0  0  0  0  0  0  0  0  0  0  0  0
   -1.9407    5.6637    0.2434 C   0  0  0  0  0  0  0  0  0  0  0  0
   -0.9435    5.3025    0.8984 O   0  0  0  0  0  0  0  0  0  0  0  0
   -2.9620    6.3274    1.0484 N   0  0  0  0  0  0  0  0  0  0  0  0
   -4.2203    6.8152    0.4879 C   0  0  0  0  0  0  0  0  0  0  0  0
   -4.7750    7.8415    1.4089 C   0  0  0  0  0  0  0  0  0  0  0  0
   -3.9071    7.8094    2.6391 C   0  0  0  0  0  0  0  0  0  0  0  0
   -2.9616    6.6476    2.4301 C   0  0  1  0  0  0  0  0  0  0  0  0
   -2.9781    5.6292    3.4719 C   0  0  1  0  0  0  0  0  0  0  0  0
   -4.0230    4.6421    3.6561 C   0  0  1  0  0  0  0  0  0  0  0  0
   -5.4421    5.0704    3.8745 C   0  0  0  0  0  0  0  0  0  0  0  0
   -3.9592    3.3449    2.9492 C   0  0  0  0  0  0  0  0  0  0  0  0
   -4.7298    3.0251    2.0102 O   0  0  0  0  0  0  0  0  0  0  0  0
   -2.9626    2.3620    3.3472 N   0  0  0  0  0  0  0  0  0  0  0  0
   -2.8687    1.0762    2.6861 C   0  0  2  0  0  0  0  0  0  0  0  0
   -3.9185    0.1827    3.3992 C   0  0  0  0  0  0  0  0  0  0  0  0
   -1.5612    0.4003    2.7506 C   0  0  1  0  0  0  0  0  0  0  0  0
   -1.1443   -0.1235    4.0687 C   0  0  0  0  0  0  0  0  0  0  0  0
   -1.6906    0.1778    5.2793 C   0  0  0  0  0  0  0  0  0  0  0  0
   -1.2239   -0.3681    6.4824 C   0  0  0  0  0  0  0  0  0  0  0  0
   -0.1706   -1.2478    6.4723 C   0  0  0  0  0  0  0  0  0  0  0  0
    0.3810   -1.5505    5.2455 C   0  0  0  0  0  0  0  0  0  0  0  0
   -0.0698   -1.0224    4.0671 C   0  0  0  0  0  0  0  0  0  0  0  0
   -1.7122   -0.7986    1.9681 O   0  0  0  0  0  0  0  0  0  0  0  0
   -1.7854    4.8766    3.2769 O   0  0  0  0  0  0  0  0  0  0  0  0
   -0.8585    5.1166    4.2819 C   0  0  0  0  0  0  0  0  0  0  0  0
   -1.8465    4.7984   -3.3494 O   0  0  0  0  0  0  0  0  0  0  0  0
   -2.3490    3.5223   -3.5122 C   0  0  0  0  0  0  0  0  0  0  0  0
    1.0157    5.5674   -1.1003 N   0  0  0  0  0  0  0  0  0  0  0  0
    1.2796    7.0244   -0.7080 C   0  0  0  0  0  0  0  0  0  0  0  0
    1.7205    4.6893   -0.2851 C   0  0  0  0  0  0  0  0  0  0  0  0
    2.6364    5.3872    0.4621 O   0  0  0  0  0  0  0  0  0  0  0  0
    1.8306    3.3118    0.0697 C   0  0  1  0  0  0  0  0  0  0  0  0
    1.6570    2.1117   -0.6966 C   0  0  0  0  0  0  0  0  0  0  0  0
    2.4213    1.7705   -1.9069 C   0  0  0  0  0  0  0  0  0  0  0  0
    0.2048    1.6524   -0.8941 C   0  0  0  0  0  0  0  0  0  0  0  0
    3.0088    3.1354    1.0180 N   0  0  0  0  0  0  0  0  0  0  0  0
    2.7975    2.7613    2.3547 C   0  0  0  0  0  0  0  0  0  0  0  0
    1.6238    2.5611    2.8348 O   0  0  0  0  0  0  0  0  0  0  0  0
    3.8936    2.5573    3.3413 C   0  0  1  0  0  0  0  0  0  0  0  0
    3.7148    1.2578    4.0957 C   0  0  0  0  0  0  0  0  0  0  0  0
    3.6623    0.0423    3.2146 C   0  0  0  0  0  0  0  0  0  0  0  0
    4.9302    1.0934    5.0013 C   0  0  0  0  0  0  0  0  0  0  0  0
    5.1926    2.8775    2.9064 N   0  0  0  0  0  0  0  0  0  0  0  0
    5.8797    4.0363    3.5438 C   0  0  0  0  0  0  0  0  0  0  0  0
    5.9774    2.2318    1.9146 C   0  0  0  0  0  0  0  0  0  0  0  0
    7.1687    2.6354    1.6667 O   0  0  0  0  0  0  0  0  0  0  0  0
    5.5695    1.1587    1.1515 O   0  0  0  0  0  0  0  0  0  0  0  0
    6.5577    0.6667    0.2311 C   0  0  0  0  0  0  0  0  0  0  0  0
    5.8984   -0.4670   -0.5004 C   0  0  0  0  0  0  0  0  0  0  0  0
    5.3222   -0.2749   -1.7428 C   0  0  0  0  0  0  0  0  0  0  0  0
    4.6820   -1.3173   -2.3783 C   0  0  0  0  0  0  0  0  0  0  0  0
    4.6461   -2.5257   -1.7318 C   0  0  0  0  0  0  0  0  0  0  0  0
    5.2336   -2.7171   -0.4713 C   0  0  0  0  0  0  0  0  0  0  0  0
    5.8726   -1.6773    0.1619 C   0  0  0  0  0  0  0  0  0  0  0  0
    4.0142   -3.6957   -2.2609 N   0  0  0  0  0  0  0  0  0  0  0  0
    2.6041   -3.7781   -2.0249 C   0  0  0  0  0  0  0  0  0  0  0  0
    1.9419   -2.9062   -1.4285 O   0  0  0  0  0  0  0  0  0  0  0  0
    1.9237   -5.0455   -2.5665 C   0  0  1  0  0  0  0  0  0  0  0  0
    2.4741   -6.1460   -1.7492 C   0  0  0  0  0  0  0  0  0  0  0  0
    2.0778   -7.5461   -1.9454 C   0  0  0  0  0  0  0  0  0  0  0  0
    2.4035   -8.1655   -3.2590 C   0  0  0  0  0  0  0  0  0  0  0  0
    1.7664   -7.6041   -4.3993 N   0  0  0  0  0  0  0  0  0  0  0  0
    2.1048   -8.1793   -5.6755 C   0  0  0  0  0  0  0  0  0  0  0  0
    2.9325   -9.1367   -5.7116 O   0  0  0  0  0  0  0  0  0  0  0  0
    1.5299   -7.6940   -6.8893 N   0  0  0  0  0  0  0  0  0  0  0  0
    0.4784   -4.8824   -2.3896 N   0  0  0  0  0  0  0  0  0  0  0  0
   -0.3449   -4.5778   -3.5027 C   0  0  0  0  0  0  0  0  0  0  0  0
    0.2181   -4.4533   -4.6094 O   0  0  0  0  0  0  0  0  0  0  0  0
   -1.8151   -4.4021   -3.4636 C   0  0  1  0  0  0  0  0  0  0  0  0
   -2.4048   -5.5940   -4.2568 C   0  0  0  0  0  0  0  0  0  0  0  0
   -1.7045   -5.4960   -5.6431 C   0  0  0  0  0  0  0  0  0  0  0  0
   -3.8423   -5.2537   -4.6315 C   0  0  0  0  0  0  0  0  0  0  0  0
   -2.2687   -4.3134   -2.1172 N   0  0  0  0  0  0  0  0  0  0  0  0
   -3.5058   -4.4706   -1.5150 C   0  0  0  0  0  0  0  0  0  0  0  0
   -4.5848   -4.7699   -2.0522 O   0  0  0  0  0  0  0  0  0  0  0  0
   -3.5986   -4.2568   -0.0167 C   0  0  0  0  0  0  0  0  0  0  0  0
   -4.9328   -4.6794    0.4971 C   0  0  0  0  0  0  0  0  0  0  0  0
   -4.9641   -4.3756    2.0083 C   0  0  0  0  0  0  0  0  0  0  0  0
   -6.2732   -4.8267    2.5724 C   0  0  0  0  0  0  0  0  0  0  0  0
   -6.4740   -4.5598    4.0302 C   0  0  0  0  0  0  0  0  0  0  0  0
   -5.5112   -5.1532    4.9076 N   0  0  0  0  0  0  0  0  0  0  0  0
   -5.4654   -6.4027    5.5582 C   0  0  0  0  0  0  0  0  0  0  0  0
   -6.3446   -7.2805    5.4527 O   0  0  0  0  0  0  0  0  0  0  0  0
   -4.2337   -6.4623    6.3475 C   0  0  0  0  0  0  0  0  0  0  0  0
   -3.5499   -5.3241    6.2021 C   0  0  0  0  0  0  0  0  0  0  0  0
   -4.3043   -4.4558    5.3035 C   0  0  0  0  0  0  0  0  0  0  0  0
   -3.9630   -3.3017    4.9377 O   0  0  0  0  0  0  0  0  0  0  0  0
    3.1363    4.5388   -5.1715 H   0  0  0  0  0  0  0  0  0  0  0  0
    3.1147    4.1099   -3.4709 H   0  0  0  0  0  0  0  0  0  0  0  0
    2.6897    2.9093   -4.7122 H   0  0  0  0  0  0  0  0  0  0  0  0
    0.8925    4.5209   -5.4520 H   0  0  0  0  0  0  0  0  0  0  0  0
    0.5423    3.3628   -4.2049 H   0  0  0  0  0  0  0  0  0  0  0  0
   -0.3286    5.7106   -4.1293 H   0  0  0  0  0  0  0  0  0  0  0  0
    1.4574    6.6904   -5.0833 H   0  0  0  0  0  0  0  0  0  0  0  0
    2.5142    6.6719   -3.6813 H   0  0  0  0  0  0  0  0  0  0  0  0
    0.8914    7.6062   -3.6751 H   0  0  0  0  0  0  0  0  0  0  0  0
   -0.2167    6.6355   -2.2568 H   0  0  0  0  0  0  0  0  0  0  0  0
   -1.2382    3.7929   -1.7632 H   0  0  0  0  0  0  0  0  0  0  0  0
   -2.3433    6.5553   -1.6168 H   0  0  0  0  0  0  0  0  0  0  0  0
   -3.2032    5.0504   -1.3938 H   0  0  0  0  0  0  0  0  0  0  0  0
   -4.9590    6.0421    0.3029 H   0  0  0  0  0  0  0  0  0  0  0  0
   -4.0447    7.3285   -0.4841 H   0  0  0  0  0  0  0  0  0  0  0  0
   -4.8811    8.8489    0.9526 H   0  0  0  0  0  0  0  0  0  0  0  0
   -5.8250    7.5813    1.7439 H   0  0  0  0  0  0  0  0  0  0  0  0
   -3.4144    8.7956    2.7193 H   0  0  0  0  0  0  0  0  0  0  0  0
   -4.4873    7.7158    3.5685 H   0  0  0  0  0  0  0  0  0  0  0  0
   -1.9388    7.1480    2.5881 H   0  0  0  0  0  0  0  0  0  0  0  0
   -2.7811    6.1850    4.4317 H   0  0  0  0  0  0  0  0  0  0  0  0
   -3.7969    4.2840    4.7640 H   0  0  0  0  0  0  0  0  0  0  0  0
   -5.5799    5.7352    4.7619 H   0  0  0  0  0  0  0  0  0  0  0  0
   -5.9662    4.1228    4.1991 H   0  0  0  0  0  0  0  0  0  0  0  0
   -5.9942    5.3783    2.9810 H   0  0  0  0  0  0  0  0  0  0  0  0
   -2.3373    2.6850    4.1111 H   0  0  0  0  0  0  0  0  0  0  0  0
   -3.3067    1.1673    1.6534 H   0  0  0  0  0  0  0  0  0  0  0  0
   -4.5231    0.7438    4.1116 H   0  0  0  0  0  0  0  0  0  0  0  0
   -3.3977   -0.7057    3.7804 H   0  0  0  0  0  0  0  0  0  0  0  0
   -4.6572   -0.2282    2.6463 H   0  0  0  0  0  0  0  0  0  0  0  0
   -0.7171    0.9734    2.3464 H   0  0  0  0  0  0  0  0  0  0  0  0
   -2.5268    0.8419    5.3844 H   0  0  0  0  0  0  0  0  0  0  0  0
   -1.6863   -0.1010    7.4208 H   0  0  0  0  0  0  0  0  0  0  0  0
    0.2105   -1.6825    7.3932 H   0  0  0  0  0  0  0  0  0  0  0  0
    1.2243   -2.2585    5.2804 H   0  0  0  0  0  0  0  0  0  0  0  0
    0.4331   -1.3245    3.1634 H   0  0  0  0  0  0  0  0  0  0  0  0
   -0.8586   -1.1003    1.6095 H   0  0  0  0  0  0  0  0  0  0  0  0
   -1.2209    4.8520    5.2833 H   0  0  0  0  0  0  0  0  0  0  0  0
   -0.5648    6.1861    4.1862 H   0  0  0  0  0  0  0  0  0  0  0  0
    0.0372    4.5212    4.0159 H   0  0  0  0  0  0  0  0  0  0  0  0
   -3.0773    3.3203   -2.6866 H   0  0  0  0  0  0  0  0  0  0  0  0
   -2.9533    3.4380   -4.4429 H   0  0  0  0  0  0  0  0  0  0  0  0
   -1.5506    2.7765   -3.4391 H   0  0  0  0  0  0  0  0  0  0  0  0
    2.2854    7.2024   -1.0913 H   0  0  0  0  0  0  0  0  0  0  0  0
    0.4786    7.6586   -1.0508 H   0  0  0  0  0  0  0  0  0  0  0  0
    1.3122    7.0936    0.3935 H   0  0  0  0  0  0  0  0  0  0  0  0
    0.9694    3.1598    0.9082 H   0  0  0  0  0  0  0  0  0  0  0  0
    2.0496    1.2716    0.0707 H   0  0  0  0  0  0  0  0  0  0  0  0
    2.6441    0.6449   -1.8579 H   0  0  0  0  0  0  0  0  0  0  0  0
    1.7906    1.7955   -2.8404 H   0  0  0  0  0  0  0  0  0  0  0  0
    3.4014    2.2417   -1.9959 H   0  0  0  0  0  0  0  0  0  0  0  0
    0.0636    0.5826   -0.6263 H   0  0  0  0  0  0  0  0  0  0  0  0
   -0.0347    1.7627   -1.9471 H   0  0  0  0  0  0  0  0  0  0  0  0
   -0.3680    2.3088   -0.1982 H   0  0  0  0  0  0  0  0  0  0  0  0
    3.9666    3.3036    0.6484 H   0  0  0  0  0  0  0  0  0  0  0  0
    3.6224    3.3421    4.1516 H   0  0  0  0  0  0  0  0  0  0  0  0
    2.7914    1.3465    4.7150 H   0  0  0  0  0  0  0  0  0  0  0  0
    4.6480   -0.4154    3.1620 H   0  0  0  0  0  0  0  0  0  0  0  0
    3.2346    0.2990    2.2254 H   0  0  0  0  0  0  0  0  0  0  0  0
    3.0086   -0.6898    3.7521 H   0  0  0  0  0  0  0  0  0  0  0  0
    5.0951    0.0277    5.2611 H   0  0  0  0  0  0  0  0  0  0  0  0
    5.8038    1.4202    4.4060 H   0  0  0  0  0  0  0  0  0  0  0  0
    4.8890    1.7479    5.8843 H   0  0  0  0  0  0  0  0  0  0  0  0
    6.6483    3.6763    4.2405 H   0  0  0  0  0  0  0  0  0  0  0  0
    6.2376    4.6778    2.7300 H   0  0  0  0  0  0  0  0  0  0  0  0
    5.1077    4.5930    4.1065 H   0  0  0  0  0  0  0  0  0  0  0  0
    6.8595    1.4053   -0.5155 H   0  0  0  0  0  0  0  0  0  0  0  0
    7.3879    0.3348    0.8644 H   0  0  0  0  0  0  0  0  0  0  0  0
    5.3484    0.6910   -2.2572 H   0  0  0  0  0  0  0  0  0  0  0  0
    4.2123   -1.2175   -3.3540 H   0  0  0  0  0  0  0  0  0  0  0  0
    5.1914   -3.6782    0.0236 H   0  0  0  0  0  0  0  0  0  0  0  0
    6.3261   -1.8302    1.1367 H   0  0  0  0  0  0  0  0  0  0  0  0
    4.5506   -4.4188   -2.7793 H   0  0  0  0  0  0  0  0  0  0  0  0
    2.1850   -5.0347   -3.6215 H   0  0  0  0  0  0  0  0  0  0  0  0
    2.3620   -5.8184   -0.6671 H   0  0  0  0  0  0  0  0  0  0  0  0
    3.6113   -6.1103   -1.9177 H   0  0  0  0  0  0  0  0  0  0  0  0
    2.6527   -8.1494   -1.1726 H   0  0  0  0  0  0  0  0  0  0  0  0
    1.0098   -7.7517   -1.6425 H   0  0  0  0  0  0  0  0  0  0  0  0
    3.5292   -8.0119   -3.3855 H   0  0  0  0  0  0  0  0  0  0  0  0
    2.2291   -9.2708   -3.2293 H   0  0  0  0  0  0  0  0  0  0  0  0
    1.0702   -6.8422   -4.4284 H   0  0  0  0  0  0  0  0  0  0  0  0
    1.9823   -6.9687   -7.4837 H   0  0  0  0  0  0  0  0  0  0  0  0
    0.5933   -8.1272   -7.1545 H   0  0  0  0  0  0  0  0  0  0  0  0
    0.1371   -5.0135   -1.4214 H   0  0  0  0  0  0  0  0  0  0  0  0
   -2.1618   -3.5513   -4.0397 H   0  0  0  0  0  0  0  0  0  0  0  0
   -2.2098   -6.5518   -3.8570 H   0  0  0  0  0  0  0  0  0  0  0  0
   -1.5640   -4.4702   -5.9650 H   0  0  0  0  0  0  0  0  0  0  0  0
   -2.4099   -5.9443   -6.4157 H   0  0  0  0  0  0  0  0  0  0  0  0
   -0.8237   -6.1282   -5.7058 H   0  0  0  0  0  0  0  0  0  0  0  0
   -3.9668   -5.3197   -5.7883 H   0  0  0  0  0  0  0  0  0  0  0  0
   -4.0709   -4.1927   -4.4583 H   0  0  0  0  0  0  0  0  0  0  0  0
   -4.5800   -6.0003   -4.3079 H   0  0  0  0  0  0  0  0  0  0  0  0
   -1.4777   -4.0356   -1.4103 H   0  0  0  0  0  0  0  0  0  0  0  0
   -2.8111   -4.8314    0.4670 H   0  0  0  0  0  0  0  0  0  0  0  0
   -3.4469   -3.1803    0.2365 H   0  0  0  0  0  0  0  0  0  0  0  0
   -4.9778   -5.7919    0.4424 H   0  0  0  0  0  0  0  0  0  0  0  0
   -5.7727   -4.1929   -0.0081 H   0  0  0  0  0  0  0  0  0  0  0  0
   -4.1380   -4.8840    2.5252 H   0  0  0  0  0  0  0  0  0  0  0  0
   -4.8145   -3.2801    2.1945 H   0  0  0  0  0  0  0  0  0  0  0  0
   -6.3779   -5.9168    2.3427 H   0  0  0  0  0  0  0  0  0  0  0  0
   -7.1111   -4.3147    2.0314 H   0  0  0  0  0  0  0  0  0  0  0  0
   -6.5542   -3.4649    4.2095 H   0  0  0  0  0  0  0  0  0  0  0  0
   -7.5081   -4.9441    4.2664 H   0  0  0  0  0  0  0  0  0  0  0  0
   -3.8731   -7.2638    6.9681 H   0  0  0  0  0  0  0  0  0  0  0  0
   -2.5920   -5.1015    6.6789 H   0  0  0  0  0  0  0  0  0  0  0  0
  1  2  1  0
  2  3  1  0
  3  4  1  0
  3  5  1  0
  5  6  1  0
  6  7  1  0
  7  8  1  0
  8  9  2  0
  8 10  1  0
 10 11  1  0
 11 12  1  0
 12 13  1  0
 13 14  1  0
 14 15  1  0
 15 16  1  0
 16 17  1  0
 16 18  1  0
 18 19  2  0
 18 20  1  0
 20 21  1  0
 21 22  1  0
 21 23  1  0
 23 24  1  0
 24 25  2  0
 25 26  1  0
 26 27  2  0
 27 28  1  0
 28 29  2  0
 23 30  1  0
 15 31  1  0
 31 32  1  0
  6 33  1  0
 33 34  1  0
  5 35  1  0
 35 36  1  0
 35 37  1  0
 37 38  2  0
 37 39  1  0
 39 40  1  0
 40 41  1  0
 40 42  1  0
 39 43  1  0
 43 44  1  0
 44 45  2  0
 44 46  1  0
 46 47  1  0
 47 48  1  0
 47 49  1  0
 46 50  1  0
 50 51  1  0
 50 52  1  0
 52 53  2  0
 52 54  1  0
 54 55  1  0
 55 56  1  0
 56 57  1  0
 57 58  2  0
 58 59  1  0
 59 60  2  0
 60 61  1  0
 59 62  1  0
 62 63  1  0
 63 64  2  0
 63 65  1  0
 65 66  1  0
 66 67  1  0
 67 68  1  0
 68 69  1  0
 69 70  1  0
 70 71  2  0
 70 72  1  0
 65 73  1  0
 73 74  1  0
 74 75  2  0
 74 76  1  0
 76 77  1  0
 77 78  1  0
 77 79  1  0
 76 80  1  0
 80 81  1  0
 81 82  2  0
 81 83  1  0
 83 84  1  0
 84 85  1  0
 85 86  1  0
 86 87  1  0
 87 88  1  0
 88 89  1  0
 89 90  2  0
 89 91  1  0
 91 92  2  0
 92 93  1  0
 93 94  2  0
 14 10  1  0
 29 24  1  0
 61 56  2  0
 93 88  1  0
  1 95  1  0
  1 96  1  0
  1 97  1  0
  2 98  1  0
  2 99  1  0
  3100  1  6
  4101  1  0
  4102  1  0
  4103  1  0
  5104  1  6
  6105  1  1
  7106  1  0
  7107  1  0
 11108  1  0
 11109  1  0
 12110  1  0
 12111  1  0
 13112  1  0
 13113  1  0
 14114  1  1
 15115  1  1
 16116  1  1
 17117  1  0
 17118  1  0
 17119  1  0
 20120  1  0
 21121  1  6
 22122  1  0
 22123  1  0
 22124  1  0
 23125  1  6
 25126  1  0
 26127  1  0
 27128  1  0
 28129  1  0
 29130  1  0
 30131  1  0
 32132  1  0
 32133  1  0
 32134  1  0
 34135  1  0
 34136  1  0
 34137  1  0
 36138  1  0
 36139  1  0
 36140  1  0
 39141  1  1
 40142  1  0
 41143  1  0
 41144  1  0
 41145  1  0
 42146  1  0
 42147  1  0
 42148  1  0
 43149  1  0
 46150  1  1
 47151  1  0
 48152  1  0
 48153  1  0
 48154  1  0
 49155  1  0
 49156  1  0
 49157  1  0
 51158  1  0
 51159  1  0
 51160  1  0
 55161  1  0
 55162  1  0
 57163  1  0
 58164  1  0
 60165  1  0
 61166  1  0
 62167  1  0
 65168  1  6
 66169  1  0
 66170  1  0
 67171  1  0
 67172  1  0
 68173  1  0
 68174  1  0
 69175  1  0
 72176  1  0
 72177  1  0
 73178  1  0
 76179  1  6
 77180  1  0
 78181  1  0
 78182  1  0
 78183  1  0
 79184  1  0
 79185  1  0
 79186  1  0
 80187  1  0
 83188  1  0
 83189  1  0
 84190  1  0
 84191  1  0
 85192  1  0
 85193  1  0
 86194  1  0
 86195  1  0
 87196  1  0
 87197  1  0
 91198  1  0
 92199  1  0
M  END
$$$$

     RDKit          3D

199202  0  0  0  0  0  0  0  0999 V2000
   -6.6241   -7.2089   -3.9600 C   0  0  0  0  0  0  0  0  0  0  0  0
   -5.6242   -6.9758   -2.8283 C   0  0  0  0  0  0  0  0  0  0  0  0
   -4.7303   -5.8360   -3.2787 C   0  0  2  0  0  0  0  0  0  0  0  0
   -4.0830   -6.3787   -4.5837 C   0  0  0  0  0  0  0  0  0  0  0  0
   -3.6531   -5.4443   -2.4051 C   0  0  1  0  0  0  0  0  0  0  0  0
   -2.8358   -4.2688   -3.0238 C   0  0  1  0  0  0  0  0  0  0  0  0
   -3.4190   -2.9461   -2.7991 C   0  0  0  0  0  0  0  0  0  0  0  0
   -2.5597   -1.8212   -3.3672 C   0  0  0  0  0  0  0  0  0  0  0  0
   -1.8480   -2.1365   -4.3266 O   0  0  0  0  0  0  0  0  0  0  0  0
   -2.6644   -0.5628   -2.7292 N   0  0  0  0  0  0  0  0  0  0  0  0
   -3.7070   -0.3764   -1.6763 C   0  0  0  0  0  0  0  0  0  0  0  0
   -3.8375    1.0670   -1.3745 C   0  0  0  0  0  0  0  0  0  0  0  0
   -2.9355    1.7226   -2.4025 C   0  0  0  0  0  0  0  0  0  0  0  0
   -1.9485    0.6717   -2.7691 C   0  0  1  0  0  0  0  0  0  0  0  0
   -0.7252    0.6253   -1.8431 C   0  0  1  0  0  0  0  0  0  0  0  0
    0.4024    0.0080   -2.6544 C   0  0  1  0  0  0  0  0  0  0  0  0
    0.7299    0.9182   -3.8008 C   0  0  0  0  0  0  0  0  0  0  0  0
    1.5665   -0.4786   -1.9477 C   0  0  0  0  0  0  0  0  0  0  0  0
    2.6033    0.2077   -1.6630 O   0  0  0  0  0  0  0  0  0  0  0  0
    1.5888   -1.8453   -1.5291 N   0  0  0  0  0  0  0  0  0  0  0  0
    2.6673   -2.4852   -0.8319 C   0  0  2  0  0  0  0  0  0  0  0  0
    3.7501   -2.9256   -1.8452 C   0  0  0  0  0  0  0  0  0  0  0  0
    2.2197   -3.6666   -0.0310 C   0  0  1  0  0  0  0  0  0  0  0  0
    3.3720   -4.3077    0.6379 C   0  0  0  0  0  0  0  0  0  0  0  0
    3.9215   -3.8873    1.8223 C   0  0  0  0  0  0  0  0  0  0  0  0
    4.9942   -4.5805    2.3206 C   0  0  0  0  0  0  0  0  0  0  0  0
    5.5551   -5.6802    1.6936 C   0  0  0  0  0  0  0  0  0  0  0  0
    5.0045   -6.1031    0.5031 C   0  0  0  0  0  0  0  0  0  0  0  0
    3.9230   -5.4189   -0.0139 C   0  0  0  0  0  0  0  0  0  0  0  0
    1.2924   -3.2615    0.9200 O   0  0  0  0  0  0  0  0  0  0  0  0
   -0.3032    1.9906   -1.8112 O   0  0  0  0  0  0  0  0  0  0  0  0
   -0.2778    2.4911   -0.5272 C   0  0  0  0  0  0  0  0  0  0  0  0
   -1.6020   -4.3635   -2.3305 O   0  0  0  0  0  0  0  0  0  0  0  0
   -0.5923   -4.8321   -3.1356 C   0  0  0  0  0  0  0  0  0  0  0  0
   -3.8456   -5.2036   -1.0003 N   0  0  0  0  0  0  0  0  0  0  0  0
   -2.9111   -5.8164   -0.0410 C   0  0  0  0  0  0  0  0  0  0  0  0
   -4.9285   -4.4171   -0.5909 C   0  0  0  0  0  0  0  0  0  0  0  0
   -5.7702   -4.1391   -1.5575 O   0  0  0  0  0  0  0  0  0  0  0  0
   -5.3045   -3.8509    0.6937 C   0  0  1  0  0  0  0  0  0  0  0  0
   -6.5554   -4.5943    1.2381 C   0  0  0  0  0  0  0  0  0  0  0  0
   -7.7182   -4.4565    0.2500 C   0  0  0  0  0  0  0  0  0  0  0  0
   -7.0562   -3.9818    2.5161 C   0  0  0  0  0  0  0  0  0  0  0  0
   -4.3088   -3.7836    1.7381 N   0  0  0  0  0  0  0  0  0  0  0  0
   -3.9659   -2.4978    2.2526 C   0  0  0  0  0  0  0  0  0  0  0  0
   -4.6057   -1.5162    1.6882 O   0  0  0  0  0  0  0  0  0  0  0  0
   -3.0346   -2.1341    3.2850 C   0  0  1  0  0  0  0  0  0  0  0  0
   -3.7356   -1.2637    4.3718 C   0  0  0  0  0  0  0  0  0  0  0  0
   -4.8693   -1.9825    5.0280 C   0  0  0  0  0  0  0  0  0  0  0  0
   -4.2504    0.0104    3.7500 C   0  0  0  0  0  0  0  0  0  0  0  0
   -2.2920   -3.0987    3.9968 N   0  0  0  0  0  0  0  0  0  0  0  0
   -2.7941   -4.3511    4.5388 C   0  0  0  0  0  0  0  0  0  0  0  0
   -0.8995   -2.8463    4.2246 C   0  0  0  0  0  0  0  0  0  0  0  0
   -0.1436   -3.6872    4.8073 O   0  0  0  0  0  0  0  0  0  0  0  0
   -0.2712   -1.6632    3.8367 O   0  0  0  0  0  0  0  0  0  0  0  0
    1.1151   -1.6022    4.1822 C   0  0  0  0  0  0  0  0  0  0  0  0
    1.7809   -0.3549    3.8125 C   0  0  0  0  0  0  0  0  0  0  0  0
    1.8786    0.7467    4.6748 C   0  0  0  0  0  0  0  0  0  0  0  0
    2.5361    1.9163    4.2902 C   0  0  0  0  0  0  0  0  0  0  0  0
    3.1115    2.0266    3.0474 C   0  0  0  0  0  0  0  0  0  0  0  0
    3.0265    0.9502    2.1801 C   0  0  0  0  0  0  0  0  0  0  0  0
    2.3739   -0.1932    2.5794 C   0  0  0  0  0  0  0  0  0  0  0  0
    3.7930    3.1738    2.5586 N   0  0  0  0  0  0  0  0  0  0  0  0
    2.9735    4.1513    1.9155 C   0  0  0  0  0  0  0  0  0  0  0  0
    1.7257    3.8447    1.8955 O   0  0  0  0  0  0  0  0  0  0  0  0
    3.3939    5.3849    1.3129 C   0  0  1  0  0  0  0  0  0  0  0  0
    2.8275    6.6043    1.9922 C   0  0  0  0  0  0  0  0  0  0  0  0
    1.3483    6.7257    2.0067 C   0  0  0  0  0  0  0  0  0  0  0  0
    0.8773    8.0100    2.6767 C   0  0  0  0  0  0  0  0  0  0  0  0
    1.2717    8.1300    4.0504 N   0  0  0  0  0  0  0  0  0  0  0  0
    0.8679    7.1834    5.0290 C   0  0  0  0  0  0  0  0  0  0  0  0
    0.1346    6.1766    4.7475 O   0  0  0  0  0  0  0  0  0  0  0  0
    1.2993    7.3559    6.3992 N   0  0  0  0  0  0  0  0  0  0  0  0
    4.8316    5.6332    1.2345 N   0  0  0  0  0  0  0  0  0  0  0  0
    5.3983    5.6055   -0.0511 C   0  0  0  0  0  0  0  0  0  0  0  0
    4.6358    5.3386   -1.0548 O   0  0  0  0  0  0  0  0  0  0  0  0
    6.8119    5.8587   -0.4192 C   0  0  1  0  0  0  0  0  0  0  0  0
    7.7639    4.9349    0.2308 C   0  0  0  0  0  0  0  0  0  0  0  0
    7.4849    3.4650   -0.1164 C   0  0  0  0  0  0  0  0  0  0  0  0
    7.8914    5.0382    1.7170 C   0  0  0  0  0  0  0  0  0  0  0  0
    6.9041    5.6594   -1.8901 N   0  0  0  0  0  0  0  0  0  0  0  0
    6.7143    6.8065   -2.7096 C   0  0  0  0  0  0  0  0  0  0  0  0
    6.4961    7.8948   -2.1009 O   0  0  0  0  0  0  0  0  0  0  0  0
    6.7669    6.7079   -4.1941 C   0  0  0  0  0  0  0  0  0  0  0  0
    6.1475    7.9256   -4.8565 C   0  0  0  0  0  0  0  0  0  0  0  0
    4.6833    8.0493   -4.4632 C   0  0  0  0  0  0  0  0  0  0  0  0
    3.8790    6.8589   -4.8690 C   0  0  0  0  0  0  0  0  0  0  0  0
    2.4259    6.9128   -4.5008 C   0  0  0  0  0  0  0  0  0  0  0  0
    1.6976    8.0197   -5.0580 N   0  0  0  0  0  0  0  0  0  0  0  0
    1.5040    9.3344   -4.5034 C   0  0  0  0  0  0  0  0  0  0  0  0
    1.9735    9.7216   -3.3961 O   0  0  0  0  0  0  0  0  0  0  0  0
    0.6848   10.1334   -5.4222 C   0  0  0  0  0  0  0  0  0  0  0  0
    0.3834    9.3976   -6.4661 C   0  0  0  0  0  0  0  0  0  0  0  0
    0.9780    8.0734   -6.3090 C   0  0  0  0  0  0  0  0  0  0  0  0
    0.9009    7.1017   -7.1117 O   0  0  0  0  0  0  0  0  0  0  0  0
   -6.3876   -8.1497   -4.5211 H   0  0  0  0  0  0  0  0  0  0  0  0
   -7.6570   -7.2707   -3.5574 H   0  0  0  0  0  0  0  0  0  0  0  0
   -6.6086   -6.3727   -4.6594 H   0  0  0  0  0  0  0  0  0  0  0  0
   -4.9857   -7.8823   -2.7879 H   0  0  0  0  0  0  0  0  0  0  0  0
   -6.1979   -6.7887   -1.9272 H   0  0  0  0  0  0  0  0  0  0  0  0
   -5.4021   -5.0372   -3.6513 H   0  0  0  0  0  0  0  0  0  0  0  0
   -3.8983   -5.5803   -5.3091 H   0  0  0  0  0  0  0  0  0  0  0  0
   -4.6942   -7.1545   -5.0514 H   0  0  0  0  0  0  0  0  0  0  0  0
   -3.1013   -6.8309   -4.3558 H   0  0  0  0  0  0  0  0  0  0  0  0
   -2.8178   -6.2431   -2.4705 H   0  0  0  0  0  0  0  0  0  0  0  0
   -2.6712   -4.5535   -4.0418 H   0  0  0  0  0  0  0  0  0  0  0  0
   -3.5525   -2.7082   -1.7425 H   0  0  0  0  0  0  0  0  0  0  0  0
   -4.3899   -2.7686   -3.3201 H   0  0  0  0  0  0  0  0  0  0  0  0
   -4.6469   -0.8097   -2.1285 H   0  0  0  0  0  0  0  0  0  0  0  0
   -3.4638   -0.9455   -0.7649 H   0  0  0  0  0  0  0  0  0  0  0  0
   -3.5520    1.3106   -0.3247 H   0  0  0  0  0  0  0  0  0  0  0  0
   -4.9109    1.3631   -1.5647 H   0  0  0  0  0  0  0  0  0  0  0  0
   -2.5284    2.6366   -1.9911 H   0  0  0  0  0  0  0  0  0  0  0  0
   -3.6042    1.9867   -3.2684 H   0  0  0  0  0  0  0  0  0  0  0  0
   -1.6332    0.8144   -3.8335 H   0  0  0  0  0  0  0  0  0  0  0  0
   -0.9771    0.1890   -0.9206 H   0  0  0  0  0  0  0  0  0  0  0  0
   -0.0242   -0.9192   -3.1703 H   0  0  0  0  0  0  0  0  0  0  0  0
    0.5817    0.4762   -4.8049 H   0  0  0  0  0  0  0  0  0  0  0  0
    1.8222    1.1965   -3.7503 H   0  0  0  0  0  0  0  0  0  0  0  0
    0.0980    1.8348   -3.7725 H   0  0  0  0  0  0  0  0  0  0  0  0
    0.7506   -2.4496   -1.7475 H   0  0  0  0  0  0  0  0  0  0  0  0
    3.1928   -1.7597   -0.2169 H   0  0  0  0  0  0  0  0  0  0  0  0
    3.3770   -3.7008   -2.5100 H   0  0  0  0  0  0  0  0  0  0  0  0
    4.1353   -2.0127   -2.2943 H   0  0  0  0  0  0  0  0  0  0  0  0
    4.5574   -3.3704   -1.2196 H   0  0  0  0  0  0  0  0  0  0  0  0
    1.7321   -4.4166   -0.7287 H   0  0  0  0  0  0  0  0  0  0  0  0
    3.4943   -3.0304    2.3212 H   0  0  0  0  0  0  0  0  0  0  0  0
    5.4569   -4.2789    3.2523 H   0  0  0  0  0  0  0  0  0  0  0  0
    6.3976   -6.2136    2.0914 H   0  0  0  0  0  0  0  0  0  0  0  0
    5.3954   -6.9579   -0.0452 H   0  0  0  0  0  0  0  0  0  0  0  0
    3.5061   -5.7652   -0.9533 H   0  0  0  0  0  0  0  0  0  0  0  0
    0.9743   -4.0805    1.4009 H   0  0  0  0  0  0  0  0  0  0  0  0
   -1.2564    2.4639   -0.0124 H   0  0  0  0  0  0  0  0  0  0  0  0
    0.1777    3.5183   -0.5246 H   0  0  0  0  0  0  0  0  0  0  0  0
    0.4410    1.8766    0.0663 H   0  0  0  0  0  0  0  0  0  0  0  0
   -0.8271   -5.8522   -3.5724 H   0  0  0  0  0  0  0  0  0  0  0  0
   -0.1299   -4.1383   -3.8269 H   0  0  0  0  0  0  0  0  0  0  0  0
    0.2478   -5.1096   -2.4127 H   0  0  0  0  0  0  0  0  0  0  0  0
   -2.2592   -5.0741    0.4497 H   0  0  0  0  0  0  0  0  0  0  0  0
   -3.4195   -6.4012    0.7330 H   0  0  0  0  0  0  0  0  0  0  0  0
   -2.2175   -6.5076   -0.5757 H   0  0  0  0  0  0  0  0  0  0  0  0
   -5.7171   -2.8253    0.4841 H   0  0  0  0  0  0  0  0  0  0  0  0
   -6.3413   -5.6642    1.3294 H   0  0  0  0  0  0  0  0  0  0  0  0
   -8.6951   -4.4995    0.7952 H   0  0  0  0  0  0  0  0  0  0  0  0
   -7.7427   -5.2694   -0.4953 H   0  0  0  0  0  0  0  0  0  0  0  0
   -7.6030   -3.4961   -0.2840 H   0  0  0  0  0  0  0  0  0  0  0  0
   -8.1537   -4.2377    2.6188 H   0  0  0  0  0  0  0  0  0  0  0  0
   -6.9852   -2.8974    2.5600 H   0  0  0  0  0  0  0  0  0  0  0  0
   -6.5878   -4.4990    3.3764 H   0  0  0  0  0  0  0  0  0  0  0  0
   -3.8263   -4.5893    2.1525 H   0  0  0  0  0  0  0  0  0  0  0  0
   -2.2586   -1.3572    2.9295 H   0  0  0  0  0  0  0  0  0  0  0  0
   -2.9603   -1.0615    5.1309 H   0  0  0  0  0  0  0  0  0  0  0  0
   -5.3793   -2.6682    4.3503 H   0  0  0  0  0  0  0  0  0  0  0  0
   -4.5268   -2.6025    5.8993 H   0  0  0  0  0  0  0  0  0  0  0  0
   -5.5955   -1.2585    5.5079 H   0  0  0  0  0  0  0  0  0  0  0  0
   -5.3157   -0.0471    3.4506 H   0  0  0  0  0  0  0  0  0  0  0  0
   -4.1916    0.8125    4.5389 H   0  0  0  0  0  0  0  0  0  0  0  0
   -3.6976    0.2984    2.8228 H   0  0  0  0  0  0  0  0  0  0  0  0
   -2.3639   -5.1682    3.9086 H   0  0  0  0  0  0  0  0  0  0  0  0
   -3.8703   -4.4619    4.5402 H   0  0  0  0  0  0  0  0  0  0  0  0
   -2.3663   -4.5417    5.5552 H   0  0  0  0  0  0  0  0  0  0  0  0
    1.2677   -1.7793    5.2688 H   0  0  0  0  0  0  0  0  0  0  0  0
    1.5686   -2.4795    3.6680 H   0  0  0  0  0  0  0  0  0  0  0  0
    1.4269    0.6746    5.6575 H   0  0  0  0  0  0  0  0  0  0  0  0
    2.6105    2.7684    4.9627 H   0  0  0  0  0  0  0  0  0  0  0  0
    3.4667    1.0101    1.1943 H   0  0  0  0  0  0  0  0  0  0  0  0
    2.3334   -0.9965    1.8691 H   0  0  0  0  0  0  0  0  0  0  0  0
    4.8126    3.3416    2.6322 H   0  0  0  0  0  0  0  0  0  0  0  0
    2.9529    5.4196    0.2665 H   0  0  0  0  0  0  0  0  0  0  0  0
    3.2635    7.5470    1.5685 H   0  0  0  0  0  0  0  0  0  0  0  0
    3.1742    6.6322    3.0693 H   0  0  0  0  0  0  0  0  0  0  0  0
    0.8816    5.8430    2.4972 H   0  0  0  0  0  0  0  0  0  0  0  0
    0.9409    6.7392    0.9764 H   0  0  0  0  0  0  0  0  0  0  0  0
   -0.2302    8.0639    2.6263 H   0  0  0  0  0  0  0  0  0  0  0  0
    1.3614    8.8525    2.1162 H   0  0  0  0  0  0  0  0  0  0  0  0
    1.8855    8.9284    4.3932 H   0  0  0  0  0  0  0  0  0  0  0  0
    0.5923    7.2463    7.1935 H   0  0  0  0  0  0  0  0  0  0  0  0
    2.3060    7.5925    6.6037 H   0  0  0  0  0  0  0  0  0  0  0  0
    5.4262    5.8270    2.0551 H   0  0  0  0  0  0  0  0  0  0  0  0
    7.0702    6.9273   -0.1947 H   0  0  0  0  0  0  0  0  0  0  0  0
    8.8002    5.0971   -0.2344 H   0  0  0  0  0  0  0  0  0  0  0  0
    6.4103    3.2917   -0.0603 H   0  0  0  0  0  0  0  0  0  0  0  0
    7.9913    2.7739    0.5848 H   0  0  0  0  0  0  0  0  0  0  0  0
    7.8689    3.2003   -1.1266 H   0  0  0  0  0  0  0  0  0  0  0  0
    7.2440    4.3406    2.2712 H   0  0  0  0  0  0  0  0  0  0  0  0
    7.7779    6.0721    2.1106 H   0  0  0  0  0  0  0  0  0  0  0  0
    8.9405    4.6962    1.9805 H   0  0  0  0  0  0  0  0  0  0  0  0
    7.1000    4.7052   -2.2794 H   0  0  0  0  0  0  0  0  0  0  0  0
    6.2986    5.7811   -4.5784 H   0  0  0  0  0  0  0  0  0  0  0  0
    7.8532    6.6468   -4.4896 H   0  0  0  0  0  0  0  0  0  0  0  0
    6.1722    7.7481   -5.9501 H   0  0  0  0  0  0  0  0  0  0  0  0
    6.6519    8.8480   -4.5665 H   0  0  0  0  0  0  0  0  0  0  0  0
    4.6309    8.1890   -3.3746 H   0  0  0  0  0  0  0  0  0  0  0  0
    4.2626    8.9301   -5.0246 H   0  0  0  0  0  0  0  0  0  0  0  0
    4.2911    5.9464   -4.3493 H   0  0  0  0  0  0  0  0  0  0  0  0
    3.9608    6.6647   -5.9562 H   0  0  0  0  0  0  0  0  0  0  0  0
    1.9197    5.9480   -4.7677 H   0  0  0  0  0  0  0  0  0  0  0  0
    2.3049    6.9766   -3.3726 H   0  0  0  0  0  0  0  0  0  0  0  0
    0.3689   11.1684   -5.2761 H   0  0  0  0  0  0  0  0  0  0  0  0
   -0.2237    9.7732   -7.3003 H   0  0  0  0  0  0  0  0  0  0  0  0
  1  2  1  0
  2  3  1  0
  3  4  1  0
  3  5  1  0
  5  6  1  0
  6  7  1  0
  7  8  1  0
  8  9  2  0
  8 10  1  0
 10 11  1  0
 11 12  1  0
 12 13  1  0
 13 14  1  0
 14 15  1  0
 15 16  1  0
 16 17  1  0
 16 18  1  0
 18 19  2  0
 18 20  1  0
 20 21  1  0
 21 22  1  0
 21 23  1  0
 23 24  1  0
 24 25  2  0
 25 26  1  0
 26 27  2  0
 27 28  1  0
 28 29  2  0
 23 30  1  0
 15 31  1  0
 31 32  1  0
  6 33  1  0
 33 34  1  0
  5 35  1  0
 35 36  1  0
 35 37  1  0
 37 38  2  0
 37 39  1  0
 39 40  1  0
 40 41  1  0
 40 42  1  0
 39 43  1  0
 43 44  1  0
 44 45  2  0
 44 46  1  0
 46 47  1  0
 47 48  1  0
 47 49  1  0
 46 50  1  0
 50 51  1  0
 50 52  1  0
 52 53  2  0
 52 54  1  0
 54 55  1  0
 55 56  1  0
 56 57  1  0
 57 58  2  0
 58 59  1  0
 59 60  2  0
 60 61  1  0
 59 62  1  0
 62 63  1  0
 63 64  2  0
 63 65  1  0
 65 66  1  0
 66 67  1  0
 67 68  1  0
 68 69  1  0
 69 70  1  0
 70 71  2  0
 70 72  1  0
 65 73  1  0
 73 74  1  0
 74 75  2  0
 74 76  1  0
 76 77  1  0
 77 78  1  0
 77 79  1  0
 76 80  1  0
 80 81  1  0
 81 82  2  0
 81 83  1  0
 83 84  1  0
 84 85  1  0
 85 86  1  0
 86 87  1  0
 87 88  1  0
 88 89  1  0
 89 90  2  0
 89 91  1  0
 91 92  2  0
 92 93  1  0
 93 94  2  0
 14 10  1  0
 29 24  1  0
 61 56  2  0
 93 88  1  0
  1 95  1  0
  1 96  1  0
  1 97  1  0
  2 98  1  0
  2 99  1  0
  3100  1  6
  4101  1  0
  4102  1  0
  4103  1  0
  5104  1  1
  6105  1  6
  7106  1  0
  7107  1  0
 11108  1  0
 11109  1  0
 12110  1  0
 12111  1  0
 13112  1  0
 13113  1  0
 14114  1  6
 15115  1  1
 16116  1  6
 17117  1  0
 17118  1  0
 17119  1  0
 20120  1  0
 21121  1  1
 22122  1  0
 22123  1  0
 22124  1  0
 23125  1  6
 25126  1  0
 26127  1  0
 27128  1  0
 28129  1  0
 29130  1  0
 30131  1  0
 32132  1  0
 32133  1  0
 32134  1  0
 34135  1  0
 34136  1  0
 34137  1  0
 36138  1  0
 36139  1  0
 36140  1  0
 39141  1  6
 40142  1  0
 41143  1  0
 41144  1  0
 41145  1  0
 42146  1  0
 42147  1  0
 42148  1  0
 43149  1  0
 46150  1  6
 47151  1  0
 48152  1  0
 48153  1  0
 48154  1  0
 49155  1  0
 49156  1  0
 49157  1  0
 51158  1  0
 51159  1  0
 51160  1  0
 55161  1  0
 55162  1  0
 57163  1  0
 58164  1  0
 60165  1  0
 61166  1  0
 62167  1  0
 65168  1  6
 66169  1  0
 66170  1  0
 67171  1  0
 67172  1  0
 68173  1  0
 68174  1  0
 69175  1  0
 72176  1  0
 72177  1  0
 73178  1  0
 76179  1  6
 77180  1  0
 78181  1  0
 78182  1  0
 78183  1  0
 79184  1  0
 79185  1  0
 79186  1  0
 80187  1  0
 83188  1  0
 83189  1  0
 84190  1  0
 84191  1  0
 85192  1  0
 85193  1  0
 86194  1  0
 86195  1  0
 87196  1  0
 87197  1  0
 91198  1  0
 92199  1  0
M  END
$$$$

     RDKit          3D

199202  0  0  0  0  0  0  0  0999 V2000
   -7.3177    2.8675    3.1359 C   0  0  0  0  0  0  0  0  0  0  0  0
   -6.7347    2.6852    1.7073 C   0  0  0  0  0  0  0  0  0  0  0  0
   -6.4824    4.0435    1.1283 C   0  0  2  0  0  0  0  0  0  0  0  0
   -7.7432    4.8301    1.0371 C   0  0  0  0  0  0  0  0  0  0  0  0
   -5.6162    4.0456   -0.1231 C   0  0  1  0  0  0  0  0  0  0  0  0
   -6.1446    3.3384   -1.2802 C   0  0  1  0  0  0  0  0  0  0  0  0
   -5.1618    3.0339   -2.3984 C   0  0  0  0  0  0  0  0  0  0  0  0
   -4.1020    2.0554   -2.0012 C   0  0  0  0  0  0  0  0  0  0  0  0
   -3.9723    1.6469   -0.8035 O   0  0  0  0  0  0  0  0  0  0  0  0
   -3.2794    1.6086   -3.0637 N   0  0  0  0  0  0  0  0  0  0  0  0
   -3.2548    2.2285   -4.4355 C   0  0  0  0  0  0  0  0  0  0  0  0
   -1.7567    2.3815   -4.6901 C   0  0  0  0  0  0  0  0  0  0  0  0
   -1.1210    1.3852   -3.7273 C   0  0  0  0  0  0  0  0  0  0  0  0
   -2.3287    0.5577   -3.2604 C   0  0  1  0  0  0  0  0  0  0  0  0
   -1.9674   -0.3938   -2.2267 C   0  0  1  0  0  0  0  0  0  0  0  0
   -2.8572   -1.5491   -1.8771 C   0  0  1  0  0  0  0  0  0  0  0  0
   -2.2319   -2.2732   -0.7048 C   0  0  0  0  0  0  0  0  0  0  0  0
   -4.2952   -1.4740   -1.9266 C   0  0  0  0  0  0  0  0  0  0  0  0
   -5.0150   -0.6346   -2.5193 O   0  0  0  0  0  0  0  0  0  0  0  0
   -5.0798   -2.4773   -1.2139 N   0  0  0  0  0  0  0  0  0  0  0  0
   -6.5083   -2.3935   -1.2545 C   0  0  2  0  0  0  0  0  0  0  0  0
   -7.0298   -1.7818    0.0725 C   0  0  0  0  0  0  0  0  0  0  0  0
   -7.2840   -3.5966   -1.6251 C   0  0  1  0  0  0  0  0  0  0  0  0
   -7.2120   -4.7593   -0.7159 C   0  0  0  0  0  0  0  0  0  0  0  0
   -6.4092   -5.8738   -0.9825 C   0  0  0  0  0  0  0  0  0  0  0  0
   -6.4793   -6.9180   -0.0543 C   0  0  0  0  0  0  0  0  0  0  0  0
   -7.2783   -6.8736    1.0538 C   0  0  0  0  0  0  0  0  0  0  0  0
   -8.0633   -5.7743    1.3115 C   0  0  0  0  0  0  0  0  0  0  0  0
   -8.0227   -4.7225    0.4215 C   0  0  0  0  0  0  0  0  0  0  0  0
   -8.6582   -3.2136   -1.6424 O   0  0  0  0  0  0  0  0  0  0  0  0
   -0.8450   -1.1583   -2.8521 O   0  0  0  0  0  0  0  0  0  0  0  0
    0.3244   -0.9383   -2.2055 C   0  0  0  0  0  0  0  0  0  0  0  0
   -6.5677    1.9851   -0.9449 O   0  0  0  0  0  0  0  0  0  0  0  0
   -7.8643    1.8857   -1.5193 C   0  0  0  0  0  0  0  0  0  0  0  0
   -5.2348    5.4244   -0.4224 N   0  0  0  0  0  0  0  0  0  0  0  0
   -6.2536    6.1915   -1.1994 C   0  0  0  0  0  0  0  0  0  0  0  0
   -4.0895    6.1220   -0.1025 C   0  0  0  0  0  0  0  0  0  0  0  0
   -4.0650    7.3338   -0.7023 O   0  0  0  0  0  0  0  0  0  0  0  0
   -2.9124    5.9385    0.6980 C   0  0  1  0  0  0  0  0  0  0  0  0
   -2.8721    7.0889    1.7897 C   0  0  0  0  0  0  0  0  0  0  0  0
   -1.6650    6.8870    2.6706 C   0  0  0  0  0  0  0  0  0  0  0  0
   -2.7457    8.4347    1.1420 C   0  0  0  0  0  0  0  0  0  0  0  0
   -2.6058    4.7521    1.4177 N   0  0  0  0  0  0  0  0  0  0  0  0
   -1.3252    4.1720    1.2259 C   0  0  0  0  0  0  0  0  0  0  0  0
   -0.6134    4.7903    0.3309 O   0  0  0  0  0  0  0  0  0  0  0  0
   -0.6840    3.0499    1.8490 C   0  0  1  0  0  0  0  0  0  0  0  0
    0.7628    3.5574    2.1778 C   0  0  0  0  0  0  0  0  0  0  0  0
    1.5447    3.9378    0.9968 C   0  0  0  0  0  0  0  0  0  0  0  0
    1.4828    2.6048    3.0583 C   0  0  0  0  0  0  0  0  0  0  0  0
   -1.1134    2.4712    3.0707 N   0  0  0  0  0  0  0  0  0  0  0  0
   -1.5118    3.1911    4.2650 C   0  0  0  0  0  0  0  0  0  0  0  0
   -1.1409    1.0105    3.1055 C   0  0  0  0  0  0  0  0  0  0  0  0
   -0.9991    0.4705    1.9884 O   0  0  0  0  0  0  0  0  0  0  0  0
   -1.2886    0.3851    4.3027 O   0  0  0  0  0  0  0  0  0  0  0  0
   -1.2571   -1.0519    4.3866 C   0  0  0  0  0  0  0  0  0  0  0  0
    0.0302   -1.3894    3.6886 C   0  0  0  0  0  0  0  0  0  0  0  0
   -0.0939   -1.9745    2.4479 C   0  0  0  0  0  0  0  0  0  0  0  0
    1.0159   -2.1640    1.6739 C   0  0  0  0  0  0  0  0  0  0  0  0
    2.2693   -1.7715    2.1226 C   0  0  0  0  0  0  0  0  0  0  0  0
    2.4197   -1.1953    3.3517 C   0  0  0  0  0  0  0  0  0  0  0  0
    1.2647   -1.0075    4.1388 C   0  0  0  0  0  0  0  0  0  0  0  0
    3.3218   -1.8978    1.1417 N   0  0  0  0  0  0  0  0  0  0  0  0
    3.4371   -0.7255    0.3427 C   0  0  0  0  0  0  0  0  0  0  0  0
    2.6135    0.1967    0.6558 O   0  0  0  0  0  0  0  0  0  0  0  0
    4.3408   -0.4366   -0.7652 C   0  0  1  0  0  0  0  0  0  0  0  0
    5.1124    0.8200   -0.4458 C   0  0  0  0  0  0  0  0  0  0  0  0
    6.0471    1.3011   -1.5054 C   0  0  0  0  0  0  0  0  0  0  0  0
    5.3035    1.6428   -2.7913 C   0  0  0  0  0  0  0  0  0  0  0  0
    6.1702    2.1982   -3.7933 N   0  0  0  0  0  0  0  0  0  0  0  0
    7.3024    1.5862   -4.3651 C   0  0  0  0  0  0  0  0  0  0  0  0
    7.6034    0.4288   -3.9723 O   0  0  0  0  0  0  0  0  0  0  0  0
    8.0902    2.2473   -5.3603 N   0  0  0  0  0  0  0  0  0  0  0  0
    5.2173   -1.5556   -1.0689 N   0  0  0  0  0  0  0  0  0  0  0  0
    5.0629   -2.2928   -2.3058 C   0  0  0  0  0  0  0  0  0  0  0  0
    4.1396   -1.9013   -3.0577 O   0  0  0  0  0  0  0  0  0  0  0  0
    5.9824   -3.3988   -2.5553 C   0  0  1  0  0  0  0  0  0  0  0  0
    6.7343   -3.2263   -3.8797 C   0  0  0  0  0  0  0  0  0  0  0  0
    5.8042   -3.1658   -5.0607 C   0  0  0  0  0  0  0  0  0  0  0  0
    7.7135   -4.3541   -4.0705 C   0  0  0  0  0  0  0  0  0  0  0  0
    6.8786   -3.6565   -1.4677 N   0  0  0  0  0  0  0  0  0  0  0  0
    8.1801   -3.1304   -1.2791 C   0  0  0  0  0  0  0  0  0  0  0  0
    8.7779   -2.3471   -2.0268 O   0  0  0  0  0  0  0  0  0  0  0  0
    8.8813   -3.5897   -0.0216 C   0  0  0  0  0  0  0  0  0  0  0  0
   10.0016   -2.6167    0.2507 C   0  0  0  0  0  0  0  0  0  0  0  0
   10.7513   -3.0094    1.5202 C   0  0  0  0  0  0  0  0  0  0  0  0
    9.7733   -3.0899    2.6798 C   0  0  0  0  0  0  0  0  0  0  0  0
    9.0499   -1.8041    2.9491 C   0  0  0  0  0  0  0  0  0  0  0  0
    8.1109   -2.0613    4.0400 N   0  0  0  0  0  0  0  0  0  0  0  0
    6.7664   -2.5045    3.7700 C   0  0  0  0  0  0  0  0  0  0  0  0
    6.2462   -2.7221    2.6289 O   0  0  0  0  0  0  0  0  0  0  0  0
    6.1231   -2.6567    5.0610 C   0  0  0  0  0  0  0  0  0  0  0  0
    6.9801   -2.3435    6.0072 C   0  0  0  0  0  0  0  0  0  0  0  0
    8.2648   -1.9547    5.4357 C   0  0  0  0  0  0  0  0  0  0  0  0
    9.2859   -1.6028    6.0265 O   0  0  0  0  0  0  0  0  0  0  0  0
   -7.1805    3.9183    3.4619 H   0  0  0  0  0  0  0  0  0  0  0  0
   -8.3899    2.6423    3.1578 H   0  0  0  0  0  0  0  0  0  0  0  0
   -6.7826    2.2195    3.8584 H   0  0  0  0  0  0  0  0  0  0  0  0
   -7.4339    2.0453    1.1861 H   0  0  0  0  0  0  0  0  0  0  0  0
   -5.7784    2.1662    1.8499 H   0  0  0  0  0  0  0  0  0  0  0  0
   -5.8361    4.5942    1.8953 H   0  0  0  0  0  0  0  0  0  0  0  0
   -7.6620    5.8527    1.4788 H   0  0  0  0  0  0  0  0  0  0  0  0
   -8.1625    4.9126    0.0344 H   0  0  0  0  0  0  0  0  0  0  0  0
   -8.5276    4.3299    1.6751 H   0  0  0  0  0  0  0  0  0  0  0  0
   -4.6743    3.5651    0.2771 H   0  0  0  0  0  0  0  0  0  0  0  0
   -7.0720    3.7156   -1.7658 H   0  0  0  0  0  0  0  0  0  0  0  0
   -4.6618    3.9670   -2.6956 H   0  0  0  0  0  0  0  0  0  0  0  0
   -5.7337    2.6031   -3.2606 H   0  0  0  0  0  0  0  0  0  0  0  0
   -3.6573    1.5113   -5.1580 H   0  0  0  0  0  0  0  0  0  0  0  0
   -3.8196    3.1466   -4.4368 H   0  0  0  0  0  0  0  0  0  0  0  0
   -1.5081    3.4397   -4.4558 H   0  0  0  0  0  0  0  0  0  0  0  0
   -1.4729    2.1929   -5.7323 H   0  0  0  0  0  0  0  0  0  0  0  0
   -0.3214    0.8073   -4.1632 H   0  0  0  0  0  0  0  0  0  0  0  0
   -0.7763    1.9619   -2.8486 H   0  0  0  0  0  0  0  0  0  0  0  0
   -2.5958    0.0038   -4.2578 H   0  0  0  0  0  0  0  0  0  0  0  0
   -1.4552    0.0937   -1.3782 H   0  0  0  0  0  0  0  0  0  0  0  0
   -2.6698   -2.3757   -2.7341 H   0  0  0  0  0  0  0  0  0  0  0  0
   -1.6753   -3.1700   -0.9487 H   0  0  0  0  0  0  0  0  0  0  0  0
   -1.5519   -1.5689   -0.1342 H   0  0  0  0  0  0  0  0  0  0  0  0
   -3.0482   -2.4580    0.0521 H   0  0  0  0  0  0  0  0  0  0  0  0
   -4.6424   -3.2572   -0.6929 H   0  0  0  0  0  0  0  0  0  0  0  0
   -6.8204   -1.5931   -1.9859 H   0  0  0  0  0  0  0  0  0  0  0  0
   -6.7818   -2.4058    0.9318 H   0  0  0  0  0  0  0  0  0  0  0  0
   -6.5981   -0.7599    0.1026 H   0  0  0  0  0  0  0  0  0  0  0  0
   -8.1065   -1.6956   -0.0538 H   0  0  0  0  0  0  0  0  0  0  0  0
   -7.0752   -3.8892   -2.6830 H   0  0  0  0  0  0  0  0  0  0  0  0
   -5.7806   -5.9171   -1.8584 H   0  0  0  0  0  0  0  0  0  0  0  0
   -5.8866   -7.7954   -0.2104 H   0  0  0  0  0  0  0  0  0  0  0  0
   -7.3007   -7.7011    1.7454 H   0  0  0  0  0  0  0  0  0  0  0  0
   -8.7004   -5.7420    2.1825 H   0  0  0  0  0  0  0  0  0  0  0  0
   -8.6602   -3.8806    0.6541 H   0  0  0  0  0  0  0  0  0  0  0  0
   -9.1853   -3.8234   -2.2096 H   0  0  0  0  0  0  0  0  0  0  0  0
    0.6919    0.1141   -2.1496 H   0  0  0  0  0  0  0  0  0  0  0  0
    0.4967   -1.4537   -1.2461 H   0  0  0  0  0  0  0  0  0  0  0  0
    1.1182   -1.4238   -2.8863 H   0  0  0  0  0  0  0  0  0  0  0  0
   -7.8325    2.0556   -2.5987 H   0  0  0  0  0  0  0  0  0  0  0  0
   -8.4585    2.6811   -1.0611 H   0  0  0  0  0  0  0  0  0  0  0  0
   -8.2651    0.8591   -1.3761 H   0  0  0  0  0  0  0  0  0  0  0  0
   -5.6845    6.8738   -1.8981 H   0  0  0  0  0  0  0  0  0  0  0  0
   -6.8799    5.5907   -1.8281 H   0  0  0  0  0  0  0  0  0  0  0  0
   -6.8026    6.8260   -0.5024 H   0  0  0  0  0  0  0  0  0  0  0  0
   -2.0069    6.2568    0.0709 H   0  0  0  0  0  0  0  0  0  0  0  0
   -3.7711    7.0478    2.3977 H   0  0  0  0  0  0  0  0  0  0  0  0
   -0.7129    7.2119    2.2090 H   0  0  0  0  0  0  0  0  0  0  0  0
   -1.7564    7.4816    3.6221 H   0  0  0  0  0  0  0  0  0  0  0  0
   -1.5900    5.8356    3.0355 H   0  0  0  0  0  0  0  0  0  0  0  0
   -2.1388    9.1351    1.7830 H   0  0  0  0  0  0  0  0  0  0  0  0
   -3.7088    8.9036    0.8689 H   0  0  0  0  0  0  0  0  0  0  0  0
   -2.1725    8.3216    0.1772 H   0  0  0  0  0  0  0  0  0  0  0  0
   -3.2382    4.2620    2.0679 H   0  0  0  0  0  0  0  0  0  0  0  0
   -0.5135    2.1915    1.1259 H   0  0  0  0  0  0  0  0  0  0  0  0
    0.5439    4.4815    2.7827 H   0  0  0  0  0  0  0  0  0  0  0  0
    2.6430    3.6894    1.1218 H   0  0  0  0  0  0  0  0  0  0  0  0
    1.5777    5.0594    0.8992 H   0  0  0  0  0  0  0  0  0  0  0  0
    1.2327    3.5378    0.0224 H   0  0  0  0  0  0  0  0  0  0  0  0
    1.2500    2.7637    4.1489 H   0  0  0  0  0  0  0  0  0  0  0  0
    1.3612    1.5423    2.7994 H   0  0  0  0  0  0  0  0  0  0  0  0
    2.5815    2.8206    2.9470 H   0  0  0  0  0  0  0  0  0  0  0  0
   -0.8921    4.0716    4.4671 H   0  0  0  0  0  0  0  0  0  0  0  0
   -1.5090    2.4696    5.1134 H   0  0  0  0  0  0  0  0  0  0  0  0
   -2.5806    3.4931    4.1627 H   0  0  0  0  0  0  0  0  0  0  0  0
   -2.0876   -1.4505    3.8156 H   0  0  0  0  0  0  0  0  0  0  0  0
   -1.2072   -1.3688    5.4384 H   0  0  0  0  0  0  0  0  0  0  0  0
   -1.0465   -2.2856    2.0790 H   0  0  0  0  0  0  0  0  0  0  0  0
    0.8996   -2.6340    0.7209 H   0  0  0  0  0  0  0  0  0  0  0  0
    3.3908   -0.9051    3.6893 H   0  0  0  0  0  0  0  0  0  0  0  0
    1.3402   -0.5555    5.1177 H   0  0  0  0  0  0  0  0  0  0  0  0
    3.9266   -2.7066    1.0067 H   0  0  0  0  0  0  0  0  0  0  0  0
    3.7116   -0.2375   -1.6729 H   0  0  0  0  0  0  0  0  0  0  0  0
    4.4230    1.6070   -0.0781 H   0  0  0  0  0  0  0  0  0  0  0  0
    5.7389    0.5650    0.4561 H   0  0  0  0  0  0  0  0  0  0  0  0
    6.7422    0.4843   -1.7832 H   0  0  0  0  0  0  0  0  0  0  0  0
    6.6397    2.1733   -1.2097 H   0  0  0  0  0  0  0  0  0  0  0  0
    4.8738    0.7035   -3.2585 H   0  0  0  0  0  0  0  0  0  0  0  0
    4.4547    2.2996   -2.6071 H   0  0  0  0  0  0  0  0  0  0  0  0
    5.9499    3.1810   -4.1419 H   0  0  0  0  0  0  0  0  0  0  0  0
    7.8202    2.0530   -6.3494 H   0  0  0  0  0  0  0  0  0  0  0  0
    8.8787    2.8818   -5.1231 H   0  0  0  0  0  0  0  0  0  0  0  0
    5.9910   -1.8651   -0.4074 H   0  0  0  0  0  0  0  0  0  0  0  0
    5.3966   -4.3450   -2.7404 H   0  0  0  0  0  0  0  0  0  0  0  0
    7.3271   -2.2810   -3.7812 H   0  0  0  0  0  0  0  0  0  0  0  0
    4.7847   -3.3446   -4.7145 H   0  0  0  0  0  0  0  0  0  0  0  0
    6.0524   -4.0152   -5.7377 H   0  0  0  0  0  0  0  0  0  0  0  0
    5.9413   -2.2507   -5.6795 H   0  0  0  0  0  0  0  0  0  0  0  0
    7.7575   -5.0596   -3.2133 H   0  0  0  0  0  0  0  0  0  0  0  0
    7.3482   -4.9629   -4.9381 H   0  0  0  0  0  0  0  0  0  0  0  0
    8.7049   -3.9782   -4.3714 H   0  0  0  0  0  0  0  0  0  0  0  0
    6.5158   -4.3321   -0.7189 H   0  0  0  0  0  0  0  0  0  0  0  0
    8.1783   -3.5344    0.8123 H   0  0  0  0  0  0  0  0  0  0  0  0
    9.2670   -4.6366   -0.1742 H   0  0  0  0  0  0  0  0  0  0  0  0
    9.5549   -1.6116    0.3586 H   0  0  0  0  0  0  0  0  0  0  0  0
   10.7334   -2.5540   -0.5997 H   0  0  0  0  0  0  0  0  0  0  0  0
   11.4637   -2.1755    1.7332 H   0  0  0  0  0  0  0  0  0  0  0  0
   11.2419   -3.9894    1.4180 H   0  0  0  0  0  0  0  0  0  0  0  0
    9.1089   -3.9304    2.5024 H   0  0  0  0  0  0  0  0  0  0  0  0
   10.4090   -3.2853    3.5872 H   0  0  0  0  0  0  0  0  0  0  0  0
    9.7365   -1.0019    3.3212 H   0  0  0  0  0  0  0  0  0  0  0  0
    8.4829   -1.4973    2.0501 H   0  0  0  0  0  0  0  0  0  0  0  0
    5.0823   -2.9840    5.1379 H   0  0  0  0  0  0  0  0  0  0  0  0
    6.6945   -2.3956    7.0642 H   0  0  0  0  0  0  0  0  0  0  0  0
  1  2  1  0
  2  3  1  0
  3  4  1  0
  3  5  1  0
  5  6  1  0
  6  7  1  0
  7  8  1  0
  8  9  2  0
  8 10  1  0
 10 11  1  0
 11 12  1  0
 12 13  1  0
 13 14  1  0
 14 15  1  0
 15 16  1  0
 16 17  1  0
 16 18  1  0
 18 19  2  0
 18 20  1  0
 20 21  1  0
 21 22  1  0
 21 23  1  0
 23 24  1  0
 24 25  2  0
 25 26  1  0
 26 27  2  0
 27 28  1  0
 28 29  2  0
 23 30  1  0
 15 31  1  0
 31 32  1  0
  6 33  1  0
 33 34  1  0
  5 35  1  0
 35 36  1  0
 35 37  1  0
 37 38  2  0
 37 39  1  0
 39 40  1  0
 40 41  1  0
 40 42  1  0
 39 43  1  0
 43 44  1  0
 44 45  2  0
 44 46  1  0
 46 47  1  0
 47 48  1  0
 47 49  1  0
 46 50  1  0
 50 51  1  0
 50 52  1  0
 52 53  2  0
 52 54  1  0
 54 55  1  0
 55 56  1  0
 56 57  1  0
 57 58  2  0
 58 59  1  0
 59 60  2  0
 60 61  1  0
 59 62  1  0
 62 63  1  0
 63 64  2  0
 63 65  1  0
 65 66  1  0
 66 67  1  0
 67 68  1  0
 68 69  1  0
 69 70  1  0
 70 71  2  0
 70 72  1  0
 65 73  1  0
 73 74  1  0
 74 75  2  0
 74 76  1  0
 76 77  1  0
 77 78  1  0
 77 79  1  0
 76 80  1  0
 80 81  1  0
 81 82  2  0
 81 83  1  0
 83 84  1  0
 84 85  1  0
 85 86  1  0
 86 87  1  0
 87 88  1  0
 88 89  1  0
 89 90  2  0
 89 91  1  0
 91 92  2  0
 92 93  1  0
 93 94  2  0
 14 10  1  0
 29 24  1  0
 61 56  2  0
 93 88  1  0
  1 95  1  0
  1 96  1  0
  1 97  1  0
  2 98  1  0
  2 99  1  0
  3100  1  1
  4101  1  0
  4102  1  0
  4103  1  0
  5104  1  1
  6105  1  6
  7106  1  0
  7107  1  0
 11108  1  0
 11109  1  0
 12110  1  0
 12111  1  0
 13112  1  0
 13113  1  0
 14114  1  6
 15115  1  1
 16116  1  6
 17117  1  0
 17118  1  0
 17119  1  0
 20120  1  0
 21121  1  6
 22122  1  0
 22123  1  0
 22124  1  0
 23125  1  6
 25126  1  0
 26127  1  0
 27128  1  0
 28129  1  0
 29130  1  0
 30131  1  0
 32132  1  0
 32133  1  0
 32134  1  0
 34135  1  0
 34136  1  0
 34137  1  0
 36138  1  0
 36139  1  0
 36140  1  0
 39141  1  6
 40142  1  0
 41143  1  0
 41144  1  0
 41145  1  0
 42146  1  0
 42147  1  0
 42148  1  0
 43149  1  0
 46150  1  6
 47151  1  0
 48152  1  0
 48153  1  0
 48154  1  0
 49155  1  0
 49156  1  0
 49157  1  0
 51158  1  0
 51159  1  0
 51160  1  0
 55161  1  0
 55162  1  0
 57163  1  0
 58164  1  0
 60165  1  0
 61166  1  0
 62167  1  0
 65168  1  6
 66169  1  0
 66170  1  0
 67171  1  0
 67172  1  0
 68173  1  0
 68174  1  0
 69175  1  0
 72176  1  0
 72177  1  0
 73178  1  0
 76179  1  6
 77180  1  0
 78181  1  0
 78182  1  0
 78183  1  0
 79184  1  0
 79185  1  0
 79186  1  0
 80187  1  0
 83188  1  0
 83189  1  0
 84190  1  0
 84191  1  0
 85192  1  0
 85193  1  0
 86194  1  0
 86195  1  0
 87196  1  0
 87197  1  0
 91198  1  0
 92199  1  0
M  END
$$$$

     RDKit          3D

199202  0  0  0  0  0  0  0  0999 V2000
    7.2769    7.3127    0.4213 C   0  0  0  0  0  0  0  0  0  0  0  0
    7.3607    5.8103    0.2344 C   0  0  0  0  0  0  0  0  0  0  0  0
    6.3102    5.2807   -0.7270 C   0  0  2  0  0  0  0  0  0  0  0  0
    6.5449    6.0011   -2.0335 C   0  0  0  0  0  0  0  0  0  0  0  0
    4.9739    5.4061   -0.1255 C   0  0  1  0  0  0  0  0  0  0  0  0
    3.8293    4.9274   -1.0296 C   0  0  1  0  0  0  0  0  0  0  0  0
    4.0653    3.7889   -1.9056 C   0  0  0  0  0  0  0  0  0  0  0  0
    2.8385    3.3358   -2.6962 C   0  0  0  0  0  0  0  0  0  0  0  0
    1.9082    4.1216   -2.9361 O   0  0  0  0  0  0  0  0  0  0  0  0
    2.8696    1.9681   -3.0824 N   0  0  0  0  0  0  0  0  0  0  0  0
    3.9881    1.0124   -3.0684 C   0  0  0  0  0  0  0  0  0  0  0  0
    3.3583   -0.0821   -2.1900 C   0  0  0  0  0  0  0  0  0  0  0  0
    1.8690    0.3601   -2.0003 C   0  0  0  0  0  0  0  0  0  0  0  0
    1.7328    1.0922   -3.3086 C   0  0  1  0  0  0  0  0  0  0  0  0
    0.5019    1.5206   -3.8704 C   0  0  1  0  0  0  0  0  0  0  0  0
   -0.5923    0.4698   -3.3249 C   0  0  1  0  0  0  0  0  0  0  0  0
   -0.3005   -0.8962   -3.7060 C   0  0  0  0  0  0  0  0  0  0  0  0
   -0.8133    0.8071   -1.9245 C   0  0  0  0  0  0  0  0  0  0  0  0
   -0.5174    2.0170   -1.5743 O   0  0  0  0  0  0  0  0  0  0  0  0
   -1.3002    0.0121   -0.8665 N   0  0  0  0  0  0  0  0  0  0  0  0
   -1.3954    0.6606    0.4334 C   0  0  2  0  0  0  0  0  0  0  0  0
   -0.0016    0.7713    1.0627 C   0  0  0  0  0  0  0  0  0  0  0  0
   -2.4259    0.1805    1.3565 C   0  0  1  0  0  0  0  0  0  0  0  0
   -2.3420   -1.1983    1.8451 C   0  0  0  0  0  0  0  0  0  0  0  0
   -1.4085   -1.5897    2.8088 C   0  0  0  0  0  0  0  0  0  0  0  0
   -1.3468   -2.8973    3.2780 C   0  0  0  0  0  0  0  0  0  0  0  0
   -2.2091   -3.8514    2.8035 C   0  0  0  0  0  0  0  0  0  0  0  0
   -3.1517   -3.4804    1.8380 C   0  0  0  0  0  0  0  0  0  0  0  0
   -3.2084   -2.1822    1.3756 C   0  0  0  0  0  0  0  0  0  0  0  0
   -2.3334    0.9872    2.5310 O   0  0  0  0  0  0  0  0  0  0  0  0
   -0.1358    2.6835   -3.4247 O   0  0  0  0  0  0  0  0  0  0  0  0
   -0.7629    3.3313   -4.5091 C   0  0  0  0  0  0  0  0  0  0  0  0
    2.6076    5.0486   -0.4285 O   0  0  0  0  0  0  0  0  0  0  0  0
    1.8513    6.1401   -0.7143 C   0  0  0  0  0  0  0  0  0  0  0  0
    4.9404    4.7031    1.1541 N   0  0  0  0  0  0  0  0  0  0  0  0
    4.6141    5.5708    2.3130 C   0  0  0  0  0  0  0  0  0  0  0  0
    5.2001    3.3728    1.4211 C   0  0  0  0  0  0  0  0  0  0  0  0
    5.6536    2.5993    0.4936 O   0  0  0  0  0  0  0  0  0  0  0  0
    5.0320    2.6165    2.6974 C   0  0  1  0  0  0  0  0  0  0  0  0
    3.6398    2.3392    3.1337 C   0  0  0  0  0  0  0  0  0  0  0  0
    2.7140    3.4483    3.4246 C   0  0  0  0  0  0  0  0  0  0  0  0
    3.6483    1.4035    4.3597 C   0  0  0  0  0  0  0  0  0  0  0  0
    5.5527    1.2317    2.4039 N   0  0  0  0  0  0  0  0  0  0  0  0
    6.6997    0.7113    2.9548 C   0  0  0  0  0  0  0  0  0  0  0  0
    7.4260    1.3661    3.7729 O   0  0  0  0  0  0  0  0  0  0  0  0
    7.2297   -0.6858    2.6437 C   0  0  1  0  0  0  0  0  0  0  0  0
    7.9288   -1.1988    3.8097 C   0  0  0  0  0  0  0  0  0  0  0  0
    8.5218   -2.5611    3.7192 C   0  0  0  0  0  0  0  0  0  0  0  0
    7.2282   -1.0604    5.1454 C   0  0  0  0  0  0  0  0  0  0  0  0
    6.2776   -1.4292    1.9150 N   0  0  0  0  0  0  0  0  0  0  0  0
    6.4156   -1.5173    0.4306 C   0  0  0  0  0  0  0  0  0  0  0  0
    5.1644   -2.1306    2.4244 C   0  0  0  0  0  0  0  0  0  0  0  0
    4.9133   -2.2220    3.6818 O   0  0  0  0  0  0  0  0  0  0  0  0
    4.2196   -2.7951    1.6288 O   0  0  0  0  0  0  0  0  0  0  0  0
    3.1706   -3.4731    2.3289 C   0  0  0  0  0  0  0  0  0  0  0  0
    2.1897   -4.0923    1.4243 C   0  0  0  0  0  0  0  0  0  0  0  0
    1.1058   -3.3128    1.0406 C   0  0  0  0  0  0  0  0  0  0  0  0
    0.1126   -3.7695    0.1943 C   0  0  0  0  0  0  0  0  0  0  0  0
    0.1505   -5.0497   -0.3191 C   0  0  0  0  0  0  0  0  0  0  0  0
    1.2230   -5.8270    0.0585 C   0  0  0  0  0  0  0  0  0  0  0  0
    2.2257   -5.3624    0.9138 C   0  0  0  0  0  0  0  0  0  0  0  0
   -0.7994   -5.5882   -1.2097 N   0  0  0  0  0  0  0  0  0  0  0  0
   -1.9064   -4.9225   -1.7884 C   0  0  0  0  0  0  0  0  0  0  0  0
   -2.1412   -3.7231   -1.5327 O   0  0  0  0  0  0  0  0  0  0  0  0
   -2.8371   -5.6888   -2.7577 C   0  0  1  0  0  0  0  0  0  0  0  0
   -3.4048   -6.8613   -2.1099 C   0  0  0  0  0  0  0  0  0  0  0  0
   -4.2420   -7.8479   -2.8312 C   0  0  0  0  0  0  0  0  0  0  0  0
   -5.4565   -7.4278   -3.5409 C   0  0  0  0  0  0  0  0  0  0  0  0
   -5.3105   -6.5654   -4.6683 N   0  0  0  0  0  0  0  0  0  0  0  0
   -4.5472   -6.9772   -5.8134 C   0  0  0  0  0  0  0  0  0  0  0  0
   -3.9802   -8.0976   -5.8911 O   0  0  0  0  0  0  0  0  0  0  0  0
   -4.4235   -6.0748   -6.9222 N   0  0  0  0  0  0  0  0  0  0  0  0
   -3.7972   -4.6554   -3.2176 N   0  0  0  0  0  0  0  0  0  0  0  0
   -4.6630   -3.9800   -2.3200 C   0  0  0  0  0  0  0  0  0  0  0  0
   -4.5939   -4.3508   -1.0924 O   0  0  0  0  0  0  0  0  0  0  0  0
   -5.6056   -2.9192   -2.6276 C   0  0  1  0  0  0  0  0  0  0  0  0
   -6.6441   -3.1715   -3.6778 C   0  0  0  0  0  0  0  0  0  0  0  0
   -7.4507   -1.8577   -3.7702 C   0  0  0  0  0  0  0  0  0  0  0  0
   -7.6415   -4.1959   -3.1756 C   0  0  0  0  0  0  0  0  0  0  0  0
   -6.3072   -2.4221   -1.4456 N   0  0  0  0  0  0  0  0  0  0  0  0
   -6.1765   -1.0495   -1.0295 C   0  0  0  0  0  0  0  0  0  0  0  0
   -5.4399   -0.2541   -1.6817 O   0  0  0  0  0  0  0  0  0  0  0  0
   -6.9377   -0.6500    0.1684 C   0  0  0  0  0  0  0  0  0  0  0  0
   -6.7439    0.7708    0.5814 C   0  0  0  0  0  0  0  0  0  0  0  0
   -7.5732    1.0946    1.8298 C   0  0  0  0  0  0  0  0  0  0  0  0
   -7.3609    2.5232    2.2654 C   0  0  0  0  0  0  0  0  0  0  0  0
   -8.2063    2.7888    3.4991 C   0  0  0  0  0  0  0  0  0  0  0  0
   -8.0648    4.1457    3.9928 N   0  0  0  0  0  0  0  0  0  0  0  0
   -7.0767    4.5182    4.9481 C   0  0  0  0  0  0  0  0  0  0  0  0
   -6.2222    3.7420    5.4762 O   0  0  0  0  0  0  0  0  0  0  0  0
   -7.2550    5.9408    5.1771 C   0  0  0  0  0  0  0  0  0  0  0  0
   -8.2681    6.4057    4.4285 C   0  0  0  0  0  0  0  0  0  0  0  0
   -8.8307    5.2924    3.6392 C   0  0  0  0  0  0  0  0  0  0  0  0
   -9.7881    5.3763    2.8328 O   0  0  0  0  0  0  0  0  0  0  0  0
    8.1815    7.8415    0.0232 H   0  0  0  0  0  0  0  0  0  0  0  0
    7.2872    7.5005    1.5118 H   0  0  0  0  0  0  0  0  0  0  0  0
    6.3535    7.7041   -0.0434 H   0  0  0  0  0  0  0  0  0  0  0  0
    7.2783    5.2585    1.1730 H   0  0  0  0  0  0  0  0  0  0  0  0
    8.3752    5.5881   -0.1785 H   0  0  0  0  0  0  0  0  0  0  0  0
    6.6294    4.1837   -0.8413 H   0  0  0  0  0  0  0  0  0  0  0  0
    6.9748    5.3305   -2.8044 H   0  0  0  0  0  0  0  0  0  0  0  0
    7.2762    6.8403   -1.9428 H   0  0  0  0  0  0  0  0  0  0  0  0
    5.6000    6.4883   -2.3406 H   0  0  0  0  0  0  0  0  0  0  0  0
    4.7610    6.4879    0.0802 H   0  0  0  0  0  0  0  0  0  0  0  0
    3.8017    5.8440   -1.7794 H   0  0  0  0  0  0  0  0  0  0  0  0
    4.7658    4.0669   -2.7787 H   0  0  0  0  0  0  0  0  0  0  0  0
    4.4746    2.8751   -1.5247 H   0  0  0  0  0  0  0  0  0  0  0  0
    4.9203    1.3910   -2.6968 H   0  0  0  0  0  0  0  0  0  0  0  0
    4.0970    0.6137   -4.1179 H   0  0  0  0  0  0  0  0  0  0  0  0
    3.8594   -0.1790   -1.2292 H   0  0  0  0  0  0  0  0  0  0  0  0
    3.3631   -1.0591   -2.7096 H   0  0  0  0  0  0  0  0  0  0  0  0
    1.9591    1.1116   -1.1975 H   0  0  0  0  0  0  0  0  0  0  0  0
    1.2482   -0.4855   -1.8110 H   0  0  0  0  0  0  0  0  0  0  0  0
    2.2161    0.3745   -4.1313 H   0  0  0  0  0  0  0  0  0  0  0  0
    0.3953    1.4224   -4.9360 H   0  0  0  0  0  0  0  0  0  0  0  0
   -1.4854    0.8240   -3.8949 H   0  0  0  0  0  0  0  0  0  0  0  0
    0.7328   -1.1683   -3.9990 H   0  0  0  0  0  0  0  0  0  0  0  0
   -0.5519   -1.5890   -2.8457 H   0  0  0  0  0  0  0  0  0  0  0  0
   -0.9033   -1.2163   -4.6093 H   0  0  0  0  0  0  0  0  0  0  0  0
   -1.5572   -0.9598   -1.0715 H   0  0  0  0  0  0  0  0  0  0  0  0
   -1.6338    1.7514    0.2186 H   0  0  0  0  0  0  0  0  0  0  0  0
    0.6351   -0.0854    0.8633 H   0  0  0  0  0  0  0  0  0  0  0  0
   -0.1610    1.0330    2.1235 H   0  0  0  0  0  0  0  0  0  0  0  0
    0.4599    1.7030    0.6173 H   0  0  0  0  0  0  0  0  0  0  0  0
   -3.4195    0.4108    0.9235 H   0  0  0  0  0  0  0  0  0  0  0  0
   -0.6968   -0.9140    3.2439 H   0  0  0  0  0  0  0  0  0  0  0  0
   -0.6145   -3.1880    4.0174 H   0  0  0  0  0  0  0  0  0  0  0  0
   -2.1517   -4.8748    3.1752 H   0  0  0  0  0  0  0  0  0  0  0  0
   -3.8154   -4.2670    1.5019 H   0  0  0  0  0  0  0  0  0  0  0  0
   -3.9297   -1.8979    0.6313 H   0  0  0  0  0  0  0  0  0  0  0  0
   -3.1697    1.4752    2.7075 H   0  0  0  0  0  0  0  0  0  0  0  0
   -1.2412    4.2474   -4.1293 H   0  0  0  0  0  0  0  0  0  0  0  0
   -1.5482    2.6868   -4.9490 H   0  0  0  0  0  0  0  0  0  0  0  0
   -0.0809    3.6042   -5.3149 H   0  0  0  0  0  0  0  0  0  0  0  0
    0.8677    6.0420   -0.1583 H   0  0  0  0  0  0  0  0  0  0  0  0
    1.6780    6.4325   -1.7391 H   0  0  0  0  0  0  0  0  0  0  0  0
    2.3119    7.0557   -0.2229 H   0  0  0  0  0  0  0  0  0  0  0  0
    4.9730    5.1654    3.2539 H   0  0  0  0  0  0  0  0  0  0  0  0
    3.5555    5.8855    2.2675 H   0  0  0  0  0  0  0  0  0  0  0  0
    5.1772    6.5436    2.1407 H   0  0  0  0  0  0  0  0  0  0  0  0
    5.6880    3.0380    3.4422 H   0  0  0  0  0  0  0  0  0  0  0  0
    3.0918    1.6946    2.3596 H   0  0  0  0  0  0  0  0  0  0  0  0
    3.0596    4.1555    4.2109 H   0  0  0  0  0  0  0  0  0  0  0  0
    2.2378    3.9436    2.5597 H   0  0  0  0  0  0  0  0  0  0  0  0
    1.8156    2.9571    3.9441 H   0  0  0  0  0  0  0  0  0  0  0  0
    2.6480    1.4501    4.7918 H   0  0  0  0  0  0  0  0  0  0  0  0
    4.4816    1.6595    5.0405 H   0  0  0  0  0  0  0  0  0  0  0  0
    3.8319    0.3643    3.9841 H   0  0  0  0  0  0  0  0  0  0  0  0
    4.9748    0.6370    1.7312 H   0  0  0  0  0  0  0  0  0  0  0  0
    8.0241   -0.3720    1.8527 H   0  0  0  0  0  0  0  0  0  0  0  0
    8.8403   -0.5108    3.9465 H   0  0  0  0  0  0  0  0  0  0  0  0
    8.6113   -3.0936    4.7046 H   0  0  0  0  0  0  0  0  0  0  0  0
    9.5647   -2.4680    3.3487 H   0  0  0  0  0  0  0  0  0  0  0  0
    8.0304   -3.2075    2.9541 H   0  0  0  0  0  0  0  0  0  0  0  0
    6.3665   -0.3769    4.9962 H   0  0  0  0  0  0  0  0  0  0  0  0
    6.9464   -2.0805    5.4814 H   0  0  0  0  0  0  0  0  0  0  0  0
    7.9219   -0.6607    5.9207 H   0  0  0  0  0  0  0  0  0  0  0  0
    6.5262   -0.5226   -0.0072 H   0  0  0  0  0  0  0  0  0  0  0  0
    5.5864   -2.0281   -0.0372 H   0  0  0  0  0  0  0  0  0  0  0  0
    7.3644   -2.0897    0.2550 H   0  0  0  0  0  0  0  0  0  0  0  0
    3.7234   -4.2994    2.8749 H   0  0  0  0  0  0  0  0  0  0  0  0
    2.7447   -2.7769    3.0639 H   0  0  0  0  0  0  0  0  0  0  0  0
    1.0480   -2.3123    1.4402 H   0  0  0  0  0  0  0  0  0  0  0  0
   -0.6720   -3.1040   -0.0384 H   0  0  0  0  0  0  0  0  0  0  0  0
    1.3054   -6.8476   -0.3168 H   0  0  0  0  0  0  0  0  0  0  0  0
    3.0454   -5.9971    1.1884 H   0  0  0  0  0  0  0  0  0  0  0  0
   -0.6994   -6.6114   -1.4973 H   0  0  0  0  0  0  0  0  0  0  0  0
   -2.2111   -5.9419   -3.6063 H   0  0  0  0  0  0  0  0  0  0  0  0
   -2.5280   -7.4629   -1.6716 H   0  0  0  0  0  0  0  0  0  0  0  0
   -4.0324   -6.5931   -1.1846 H   0  0  0  0  0  0  0  0  0  0  0  0
   -3.5404   -8.2785   -3.6428 H   0  0  0  0  0  0  0  0  0  0  0  0
   -4.4273   -8.7688   -2.1838 H   0  0  0  0  0  0  0  0  0  0  0  0
   -6.0577   -8.3472   -3.7819 H   0  0  0  0  0  0  0  0  0  0  0  0
   -6.1216   -6.9114   -2.7767 H   0  0  0  0  0  0  0  0  0  0  0  0
   -5.7447   -5.6301   -4.7329 H   0  0  0  0  0  0  0  0  0  0  0  0
   -3.7586   -5.2456   -6.8630 H   0  0  0  0  0  0  0  0  0  0  0  0
   -4.9758   -6.2064   -7.8139 H   0  0  0  0  0  0  0  0  0  0  0  0
   -3.8507   -4.3849   -4.2258 H   0  0  0  0  0  0  0  0  0  0  0  0
   -5.0223   -2.0291   -2.9890 H   0  0  0  0  0  0  0  0  0  0  0  0
   -6.2703   -3.3473   -4.6822 H   0  0  0  0  0  0  0  0  0  0  0  0
   -7.8609   -1.5743   -2.7799 H   0  0  0  0  0  0  0  0  0  0  0  0
   -6.7446   -1.0348   -4.0630 H   0  0  0  0  0  0  0  0  0  0  0  0
   -8.2239   -1.9057   -4.5551 H   0  0  0  0  0  0  0  0  0  0  0  0
   -8.5216   -3.7065   -2.7274 H   0  0  0  0  0  0  0  0  0  0  0  0
   -7.1063   -4.7822   -2.3708 H   0  0  0  0  0  0  0  0  0  0  0  0
   -7.9297   -4.8671   -4.0158 H   0  0  0  0  0  0  0  0  0  0  0  0
   -6.9190   -3.0801   -0.8872 H   0  0  0  0  0  0  0  0  0  0  0  0
   -8.0224   -0.7636   -0.1047 H   0  0  0  0  0  0  0  0  0  0  0  0
   -6.6670   -1.2925    1.0367 H   0  0  0  0  0  0  0  0  0  0  0  0
   -7.1258    1.5135   -0.1817 H   0  0  0  0  0  0  0  0  0  0  0  0
   -5.7057    1.0771    0.7649 H   0  0  0  0  0  0  0  0  0  0  0  0
   -7.2342    0.4222    2.6346 H   0  0  0  0  0  0  0  0  0  0  0  0
   -8.6581    0.9631    1.6084 H   0  0  0  0  0  0  0  0  0  0  0  0
   -6.3025    2.7151    2.5619 H   0  0  0  0  0  0  0  0  0  0  0  0
   -7.6358    3.2685    1.4959 H   0  0  0  0  0  0  0  0  0  0  0  0
   -9.2622    2.5598    3.3300 H   0  0  0  0  0  0  0  0  0  0  0  0
   -7.8756    2.0887    4.3082 H   0  0  0  0  0  0  0  0  0  0  0  0
   -6.6302    6.5101    5.8660 H   0  0  0  0  0  0  0  0  0  0  0  0
   -8.5677    7.4428    4.4460 H   0  0  0  0  0  0  0  0  0  0  0  0
  1  2  1  0
  2  3  1  0
  3  4  1  0
  3  5  1  0
  5  6  1  0
  6  7  1  0
  7  8  1  0
  8  9  2  0
  8 10  1  0
 10 11  1  0
 11 12  1  0
 12 13  1  0
 13 14  1  0
 14 15  1  0
 15 16  1  0
 16 17  1  0
 16 18  1  0
 18 19  2  0
 18 20  1  0
 20 21  1  0
 21 22  1  0
 21 23  1  0
 23 24  1  0
 24 25  2  0
 25 26  1  0
 26 27  2  0
 27 28  1  0
 28 29  2  0
 23 30  1  0
 15 31  1  0
 31 32  1  0
  6 33  1  0
 33 34  1  0
  5 35  1  0
 35 36  1  0
 35 37  1  0
 37 38  2  0
 37 39  1  0
 39 40  1  0
 40 41  1  0
 40 42  1  0
 39 43  1  0
 43 44  1  0
 44 45  2  0
 44 46  1  0
 46 47  1  0
 47 48  1  0
 47 49  1  0
 46 50  1  0
 50 51  1  0
 50 52  1  0
 52 53  2  0
 52 54  1  0
 54 55  1  0
 55 56  1  0
 56 57  1  0
 57 58  2  0
 58 59  1  0
 59 60  2  0
 60 61  1  0
 59 62  1  0
 62 63  1  0
 63 64  2  0
 63 65  1  0
 65 66  1  0
 66 67  1  0
 67 68  1  0
 68 69  1  0
 69 70  1  0
 70 71  2  0
 70 72  1  0
 65 73  1  0
 73 74  1  0
 74 75  2  0
 74 76  1  0
 76 77  1  0
 77 78  1  0
 77 79  1  0
 76 80  1  0
 80 81  1  0
 81 82  2  0
 81 83  1  0
 83 84  1  0
 84 85  1  0
 85 86  1  0
 86 87  1  0
 87 88  1  0
 88 89  1  0
 89 90  2  0
 89 91  1  0
 91 92  2  0
 92 93  1  0
 93 94  2  0
 14 10  1  0
 29 24  1  0
 61 56  2  0
 93 88  1  0
  1 95  1  0
  1 96  1  0
  1 97  1  0
  2 98  1  0
  2 99  1  0
  3100  1  6
  4101  1  0
  4102  1  0
  4103  1  0
  5104  1  1
  6105  1  6
  7106  1  0
  7107  1  0
 11108  1  0
 11109  1  0
 12110  1  0
 12111  1  0
 13112  1  0
 13113  1  0
 14114  1  6
 15115  1  6
 16116  1  6
 17117  1  0
 17118  1  0
 17119  1  0
 20120  1  0
 21121  1  6
 22122  1  0
 22123  1  0
 22124  1  0
 23125  1  6
 25126  1  0
 26127  1  0
 27128  1  0
 28129  1  0
 29130  1  0
 30131  1  0
 32132  1  0
 32133  1  0
 32134  1  0
 34135  1  0
 34136  1  0
 34137  1  0
 36138  1  0
 36139  1  0
 36140  1  0
 39141  1  1
 40142  1  0
 41143  1  0
 41144  1  0
 41145  1  0
 42146  1  0
 42147  1  0
 42148  1  0
 43149  1  0
 46150  1  6
 47151  1  0
 48152  1  0
 48153  1  0
 48154  1  0
 49155  1  0
 49156  1  0
 49157  1  0
 51158  1  0
 51159  1  0
 51160  1  0
 55161  1  0
 55162  1  0
 57163  1  0
 58164  1  0
 60165  1  0
 61166  1  0
 62167  1  0
 65168  1  6
 66169  1  0
 66170  1  0
 67171  1  0
 67172  1  0
 68173  1  0
 68174  1  0
 69175  1  0
 72176  1  0
 72177  1  0
 73178  1  0
 76179  1  6
 77180  1  0
 78181  1  0
 78182  1  0
 78183  1  0
 79184  1  0
 79185  1  0
 79186  1  0
 80187  1  0
 83188  1  0
 83189  1  0
 84190  1  0
 84191  1  0
 85192  1  0
 85193  1  0
 86194  1  0
 86195  1  0
 87196  1  0
 87197  1  0
 91198  1  0
 92199  1  0
M  END
$$$$

     RDKit          3D

199202  0  0  0  0  0  0  0  0999 V2000
    2.2249    1.3919   -0.9948 C   0  0  0  0  0  0  0  0  0  0  0  0
    2.6074    2.3200    0.1409 C   0  0  0  0  0  0  0  0  0  0  0  0
    2.8659    3.7274   -0.3668 C   0  0  2  0  0  0  0  0  0  0  0  0
    3.2552    4.5185    0.8804 C   0  0  0  0  0  0  0  0  0  0  0  0
    1.8471    4.3581   -1.1809 C   0  0  1  0  0  0  0  0  0  0  0  0
    0.4889    4.6977   -0.7332 C   0  0  1  0  0  0  0  0  0  0  0  0
   -0.3734    3.7021   -0.0574 C   0  0  0  0  0  0  0  0  0  0  0  0
   -1.7330    4.3028    0.2942 C   0  0  0  0  0  0  0  0  0  0  0  0
   -1.9181    4.9308    1.3464 O   0  0  0  0  0  0  0  0  0  0  0  0
   -2.8412    4.1542   -0.5913 N   0  0  0  0  0  0  0  0  0  0  0  0
   -2.7038    3.4576   -1.8653 C   0  0  0  0  0  0  0  0  0  0  0  0
   -4.0808    3.1621   -2.3751 C   0  0  0  0  0  0  0  0  0  0  0  0
   -4.8031    4.3812   -1.7601 C   0  0  0  0  0  0  0  0  0  0  0  0
   -4.2065    4.6104   -0.4545 C   0  0  1  0  0  0  0  0  0  0  0  0
   -4.8022    4.1165    0.7949 C   0  0  1  0  0  0  0  0  0  0  0  0
   -6.2319    4.4875    1.0599 C   0  0  1  0  0  0  0  0  0  0  0  0
   -6.5504    5.9388    1.0892 C   0  0  0  0  0  0  0  0  0  0  0  0
   -7.2744    3.5823    0.5459 C   0  0  0  0  0  0  0  0  0  0  0  0
   -8.0062    3.8333   -0.4589 O   0  0  0  0  0  0  0  0  0  0  0  0
   -7.5618    2.3005    1.1635 N   0  0  0  0  0  0  0  0  0  0  0  0
   -8.5614    1.4078    0.6597 C   0  0  2  0  0  0  0  0  0  0  0  0
   -9.9353    1.6902    1.2545 C   0  0  0  0  0  0  0  0  0  0  0  0
   -8.2021   -0.0034    0.9919 C   0  0  1  0  0  0  0  0  0  0  0  0
   -8.1821   -0.2552    2.4649 C   0  0  0  0  0  0  0  0  0  0  0  0
   -6.9964   -0.2478    3.1851 C   0  0  0  0  0  0  0  0  0  0  0  0
   -6.9304   -0.4864    4.5356 C   0  0  0  0  0  0  0  0  0  0  0  0
   -8.0813   -0.7535    5.2611 C   0  0  0  0  0  0  0  0  0  0  0  0
   -9.2672   -0.7662    4.5678 C   0  0  0  0  0  0  0  0  0  0  0  0
   -9.3273   -0.5224    3.1890 C   0  0  0  0  0  0  0  0  0  0  0  0
   -9.1675   -0.8911    0.4873 O   0  0  0  0  0  0  0  0  0  0  0  0
   -4.7897    2.7140    0.8210 O   0  0  0  0  0  0  0  0  0  0  0  0
   -4.1275    2.1563    1.8842 C   0  0  0  0  0  0  0  0  0  0  0  0
    0.3931    5.9314   -0.0163 O   0  0  0  0  0  0  0  0  0  0  0  0
   -0.3822    6.8385   -0.7574 C   0  0  0  0  0  0  0  0  0  0  0  0
    2.3244    5.4424   -2.0135 N   0  0  0  0  0  0  0  0  0  0  0  0
    2.9100    6.5835   -1.2984 C   0  0  0  0  0  0  0  0  0  0  0  0
    2.3488    5.4957   -3.4086 C   0  0  0  0  0  0  0  0  0  0  0  0
    2.7776    6.7072   -3.8278 O   0  0  0  0  0  0  0  0  0  0  0  0
    2.0509    4.6490   -4.5044 C   0  0  1  0  0  0  0  0  0  0  0  0
    2.9257    4.9736   -5.7524 C   0  0  0  0  0  0  0  0  0  0  0  0
    2.6924    6.3719   -6.1972 C   0  0  0  0  0  0  0  0  0  0  0  0
    4.3706    4.6975   -5.5025 C   0  0  0  0  0  0  0  0  0  0  0  0
    1.9054    3.2407   -4.4631 N   0  0  0  0  0  0  0  0  0  0  0  0
    0.7001    2.6402   -4.8034 C   0  0  0  0  0  0  0  0  0  0  0  0
   -0.3279    3.3557   -5.0706 O   0  0  0  0  0  0  0  0  0  0  0  0
    0.4343    1.1528   -4.9279 C   0  0  1  0  0  0  0  0  0  0  0  0
    1.5135    0.2457   -4.5967 C   0  0  0  0  0  0  0  0  0  0  0  0
    2.6985    0.5313   -5.5372 C   0  0  0  0  0  0  0  0  0  0  0  0
    1.0542   -1.1760   -4.9374 C   0  0  0  0  0  0  0  0  0  0  0  0
   -0.9254    0.8116   -4.6836 N   0  0  0  0  0  0  0  0  0  0  0  0
   -1.9095    0.9118   -5.7968 C   0  0  0  0  0  0  0  0  0  0  0  0
   -1.4832    0.3750   -3.4596 C   0  0  0  0  0  0  0  0  0  0  0  0
   -2.7475    0.2403   -3.2909 O   0  0  0  0  0  0  0  0  0  0  0  0
   -0.7240    0.0337   -2.3348 O   0  0  0  0  0  0  0  0  0  0  0  0
   -1.4647   -0.4110   -1.1970 C   0  0  0  0  0  0  0  0  0  0  0  0
   -0.5820   -0.8989   -0.1236 C   0  0  0  0  0  0  0  0  0  0  0  0
   -0.0523   -0.2204    0.9134 C   0  0  0  0  0  0  0  0  0  0  0  0
    0.7769   -0.8325    1.8261 C   0  0  0  0  0  0  0  0  0  0  0  0
    1.1297   -2.1872    1.7506 C   0  0  0  0  0  0  0  0  0  0  0  0
    0.5856   -2.8753    0.6900 C   0  0  0  0  0  0  0  0  0  0  0  0
   -0.2436   -2.2618   -0.2226 C   0  0  0  0  0  0  0  0  0  0  0  0
    1.9873   -2.7678    2.7205 N   0  0  0  0  0  0  0  0  0  0  0  0
    2.5086   -4.0478    2.7433 C   0  0  0  0  0  0  0  0  0  0  0  0
    2.1923   -4.8270    1.7597 O   0  0  0  0  0  0  0  0  0  0  0  0
    3.3989   -4.6961    3.7172 C   0  0  1  0  0  0  0  0  0  0  0  0
    2.8977   -5.3900    4.8975 C   0  0  0  0  0  0  0  0  0  0  0  0
    2.0961   -4.6844    5.9058 C   0  0  0  0  0  0  0  0  0  0  0  0
    0.7547   -4.1647    5.5732 C   0  0  0  0  0  0  0  0  0  0  0  0
    0.1168   -3.5389    6.7649 N   0  0  0  0  0  0  0  0  0  0  0  0
   -1.1897   -3.0086    6.5428 C   0  0  0  0  0  0  0  0  0  0  0  0
   -1.7745   -3.0543    5.4362 O   0  0  0  0  0  0  0  0  0  0  0  0
   -1.8078   -2.4043    7.6960 N   0  0  0  0  0  0  0  0  0  0  0  0
    3.9976   -5.8006    2.8181 N   0  0  0  0  0  0  0  0  0  0  0  0
    5.3975   -5.8595    2.6456 C   0  0  0  0  0  0  0  0  0  0  0  0
    6.1947   -5.0534    3.2213 O   0  0  0  0  0  0  0  0  0  0  0  0
    5.9049   -6.9325    1.7309 C   0  0  1  0  0  0  0  0  0  0  0  0
    6.9176   -7.8372    2.3681 C   0  0  0  0  0  0  0  0  0  0  0  0
    8.1137   -7.0233    2.8180 C   0  0  0  0  0  0  0  0  0  0  0  0
    6.3574   -8.6384    3.5113 C   0  0  0  0  0  0  0  0  0  0  0  0
    4.7974   -7.6599    1.1362 N   0  0  0  0  0  0  0  0  0  0  0  0
    4.4516   -7.2896   -0.2009 C   0  0  0  0  0  0  0  0  0  0  0  0
    5.0787   -6.3788   -0.8292 O   0  0  0  0  0  0  0  0  0  0  0  0
    3.3372   -7.9334   -0.9543 C   0  0  0  0  0  0  0  0  0  0  0  0
    3.2121   -7.1692   -2.2798 C   0  0  0  0  0  0  0  0  0  0  0  0
    2.1069   -7.7019   -3.1484 C   0  0  0  0  0  0  0  0  0  0  0  0
    2.0540   -6.8792   -4.4097 C   0  0  0  0  0  0  0  0  0  0  0  0
    0.9501   -7.3511   -5.3488 C   0  0  0  0  0  0  0  0  0  0  0  0
   -0.3504   -7.2455   -4.6834 N   0  0  0  0  0  0  0  0  0  0  0  0
   -1.2491   -6.1491   -4.6715 C   0  0  0  0  0  0  0  0  0  0  0  0
   -1.0554   -5.0395   -5.2630 O   0  0  0  0  0  0  0  0  0  0  0  0
   -2.4278   -6.5170   -3.8670 C   0  0  0  0  0  0  0  0  0  0  0  0
   -2.2665   -7.7577   -3.4131 C   0  0  0  0  0  0  0  0  0  0  0  0
   -0.9686   -8.2725   -3.8968 C   0  0  0  0  0  0  0  0  0  0  0  0
   -0.5403   -9.4190   -3.6297 O   0  0  0  0  0  0  0  0  0  0  0  0
    1.2989    1.6356   -1.4975 H   0  0  0  0  0  0  0  0  0  0  0  0
    2.2597    0.3334   -0.6977 H   0  0  0  0  0  0  0  0  0  0  0  0
    3.0348    1.5018   -1.7555 H   0  0  0  0  0  0  0  0  0  0  0  0
    3.5913    1.9463    0.5926 H   0  0  0  0  0  0  0  0  0  0  0  0
    1.8926    2.2155    0.9342 H   0  0  0  0  0  0  0  0  0  0  0  0
    3.8007    3.6389   -0.9617 H   0  0  0  0  0  0  0  0  0  0  0  0
    4.2746    4.9390    0.8164 H   0  0  0  0  0  0  0  0  0  0  0  0
    3.3258    3.8161    1.7670 H   0  0  0  0  0  0  0  0  0  0  0  0
    2.5633    5.2946    1.1705 H   0  0  0  0  0  0  0  0  0  0  0  0
    1.6085    3.5548   -2.0222 H   0  0  0  0  0  0  0  0  0  0  0  0
   -0.0907    4.9713   -1.6774 H   0  0  0  0  0  0  0  0  0  0  0  0
    0.0312    3.4969    0.9809 H   0  0  0  0  0  0  0  0  0  0  0  0
   -0.5587    2.7593   -0.5326 H   0  0  0  0  0  0  0  0  0  0  0  0
   -2.1149    2.5631   -1.8051 H   0  0  0  0  0  0  0  0  0  0  0  0
   -2.1987    4.1846   -2.5442 H   0  0  0  0  0  0  0  0  0  0  0  0
   -4.5236    2.2190   -2.0695 H   0  0  0  0  0  0  0  0  0  0  0  0
   -4.0664    3.2217   -3.4731 H   0  0  0  0  0  0  0  0  0  0  0  0
   -4.4529    5.2099   -2.4637 H   0  0  0  0  0  0  0  0  0  0  0  0
   -5.8586    4.3308   -1.9171 H   0  0  0  0  0  0  0  0  0  0  0  0
   -4.0764    5.7500   -0.3504 H   0  0  0  0  0  0  0  0  0  0  0  0
   -4.2082    4.4603    1.6562 H   0  0  0  0  0  0  0  0  0  0  0  0
   -6.2900    4.2235    2.2095 H   0  0  0  0  0  0  0  0  0  0  0  0
   -5.7245    6.5827    0.6585 H   0  0  0  0  0  0  0  0  0  0  0  0
   -7.5126    6.1648    0.5326 H   0  0  0  0  0  0  0  0  0  0  0  0
   -6.7455    6.3789    2.0904 H   0  0  0  0  0  0  0  0  0  0  0  0
   -7.0098    2.0539    1.9965 H   0  0  0  0  0  0  0  0  0  0  0  0
   -8.7257    1.5070   -0.4323 H   0  0  0  0  0  0  0  0  0  0  0  0
  -10.5822    0.8549    0.9297 H   0  0  0  0  0  0  0  0  0  0  0  0
   -9.9527    1.7321    2.3494 H   0  0  0  0  0  0  0  0  0  0  0  0
  -10.3890    2.5929    0.7676 H   0  0  0  0  0  0  0  0  0  0  0  0
   -7.2198   -0.3079    0.5427 H   0  0  0  0  0  0  0  0  0  0  0  0
   -6.0765   -0.0482    2.6732 H   0  0  0  0  0  0  0  0  0  0  0  0
   -5.9934   -0.4784    5.0881 H   0  0  0  0  0  0  0  0  0  0  0  0
   -7.9986   -0.9347    6.3162 H   0  0  0  0  0  0  0  0  0  0  0  0
  -10.1650   -0.9742    5.1465 H   0  0  0  0  0  0  0  0  0  0  0  0
  -10.3116   -0.5738    2.7572 H   0  0  0  0  0  0  0  0  0  0  0  0
   -9.4931   -1.5401    1.1509 H   0  0  0  0  0  0  0  0  0  0  0  0
   -4.1786    1.0493    1.7981 H   0  0  0  0  0  0  0  0  0  0  0  0
   -3.0595    2.4038    1.8425 H   0  0  0  0  0  0  0  0  0  0  0  0
   -4.4898    2.5237    2.8682 H   0  0  0  0  0  0  0  0  0  0  0  0
   -1.4055    6.4781   -0.9465 H   0  0  0  0  0  0  0  0  0  0  0  0
   -0.5053    7.7409   -0.1056 H   0  0  0  0  0  0  0  0  0  0  0  0
    0.1110    7.1638   -1.6753 H   0  0  0  0  0  0  0  0  0  0  0  0
    3.9785    6.3780   -1.0125 H   0  0  0  0  0  0  0  0  0  0  0  0
    2.3918    6.9501   -0.4440 H   0  0  0  0  0  0  0  0  0  0  0  0
    3.0180    7.4695   -2.0011 H   0  0  0  0  0  0  0  0  0  0  0  0
    1.0310    5.0940   -4.9192 H   0  0  0  0  0  0  0  0  0  0  0  0
    2.5640    4.2746   -6.5330 H   0  0  0  0  0  0  0  0  0  0  0  0
    1.7011    6.7219   -5.8853 H   0  0  0  0  0  0  0  0  0  0  0  0
    3.5222    7.0812   -5.9839 H   0  0  0  0  0  0  0  0  0  0  0  0
    2.6488    6.3593   -7.3307 H   0  0  0  0  0  0  0  0  0  0  0  0
    4.7302    5.0562   -4.5306 H   0  0  0  0  0  0  0  0  0  0  0  0
    4.9396    5.2983   -6.2622 H   0  0  0  0  0  0  0  0  0  0  0  0
    4.6770    3.6386   -5.6813 H   0  0  0  0  0  0  0  0  0  0  0  0
    2.7041    2.6372   -4.1734 H   0  0  0  0  0  0  0  0  0  0  0  0
    0.4716    1.1916   -6.1417 H   0  0  0  0  0  0  0  0  0  0  0  0
    1.8470    0.2665   -3.5468 H   0  0  0  0  0  0  0  0  0  0  0  0
    2.5150    1.3912   -6.1953 H   0  0  0  0  0  0  0  0  0  0  0  0
    3.6334    0.5846   -4.9554 H   0  0  0  0  0  0  0  0  0  0  0  0
    2.8623   -0.3326   -6.2473 H   0  0  0  0  0  0  0  0  0  0  0  0
    0.7453   -1.7206   -4.0254 H   0  0  0  0  0  0  0  0  0  0  0  0
    0.2919   -1.1696   -5.7388 H   0  0  0  0  0  0  0  0  0  0  0  0
    1.9276   -1.7400   -5.3311 H   0  0  0  0  0  0  0  0  0  0  0  0
   -2.2875    1.9249   -5.9189 H   0  0  0  0  0  0  0  0  0  0  0  0
   -1.3233    0.5785   -6.6803 H   0  0  0  0  0  0  0  0  0  0  0  0
   -2.7015    0.1426   -5.6727 H   0  0  0  0  0  0  0  0  0  0  0  0
   -2.0208    0.4543   -0.7960 H   0  0  0  0  0  0  0  0  0  0  0  0
   -2.1756   -1.1881   -1.4796 H   0  0  0  0  0  0  0  0  0  0  0  0
   -0.2977    0.8325    1.0110 H   0  0  0  0  0  0  0  0  0  0  0  0
    1.1815   -0.2260    2.6479 H   0  0  0  0  0  0  0  0  0  0  0  0
    0.7713   -3.9184    0.5236 H   0  0  0  0  0  0  0  0  0  0  0  0
   -0.6484   -2.8661   -1.0458 H   0  0  0  0  0  0  0  0  0  0  0  0
    2.2641   -2.1191    3.5233 H   0  0  0  0  0  0  0  0  0  0  0  0
    4.2509   -4.0707    3.9637 H   0  0  0  0  0  0  0  0  0  0  0  0
    2.3579   -6.3479    4.5740 H   0  0  0  0  0  0  0  0  0  0  0  0
    3.8344   -5.7760    5.4536 H   0  0  0  0  0  0  0  0  0  0  0  0
    2.0956   -5.2631    6.8865 H   0  0  0  0  0  0  0  0  0  0  0  0
    2.6989   -3.7532    6.2319 H   0  0  0  0  0  0  0  0  0  0  0  0
    0.1094   -5.0254    5.2806 H   0  0  0  0  0  0  0  0  0  0  0  0
    0.7762   -3.3740    4.8481 H   0  0  0  0  0  0  0  0  0  0  0  0
    0.6104   -3.5074    7.6775 H   0  0  0  0  0  0  0  0  0  0  0  0
   -1.8763   -3.0148    8.5353 H   0  0  0  0  0  0  0  0  0  0  0  0
   -2.1491   -1.4193    7.6476 H   0  0  0  0  0  0  0  0  0  0  0  0
    3.3118   -6.4529    2.3853 H   0  0  0  0  0  0  0  0  0  0  0  0
    6.4242   -6.3640    0.9114 H   0  0  0  0  0  0  0  0  0  0  0  0
    7.2213   -8.5691    1.5828 H   0  0  0  0  0  0  0  0  0  0  0  0
    9.0615   -7.5635    2.5504 H   0  0  0  0  0  0  0  0  0  0  0  0
    8.1278   -6.0204    2.3479 H   0  0  0  0  0  0  0  0  0  0  0  0
    8.0750   -6.8923    3.9232 H   0  0  0  0  0  0  0  0  0  0  0  0
    6.9647   -9.5573    3.6115 H   0  0  0  0  0  0  0  0  0  0  0  0
    6.4021   -8.0841    4.4459 H   0  0  0  0  0  0  0  0  0  0  0  0
    5.2984   -8.9013    3.2928 H   0  0  0  0  0  0  0  0  0  0  0  0
    4.2607   -8.4083    1.6132 H   0  0  0  0  0  0  0  0  0  0  0  0
    2.3846   -7.9176   -0.4221 H   0  0  0  0  0  0  0  0  0  0  0  0
    3.5722   -8.9781   -1.2314 H   0  0  0  0  0  0  0  0  0  0  0  0
    4.1601   -7.2068   -2.8456 H   0  0  0  0  0  0  0  0  0  0  0  0
    2.9888   -6.0928   -2.0938 H   0  0  0  0  0  0  0  0  0  0  0  0
    1.1438   -7.5162   -2.5888 H   0  0  0  0  0  0  0  0  0  0  0  0
    2.2048   -8.7517   -3.4379 H   0  0  0  0  0  0  0  0  0  0  0  0
    2.9941   -6.8953   -4.9617 H   0  0  0  0  0  0  0  0  0  0  0  0
    1.8519   -5.8048   -4.1774 H   0  0  0  0  0  0  0  0  0  0  0  0
    1.1616   -8.3798   -5.6974 H   0  0  0  0  0  0  0  0  0  0  0  0
    0.9947   -6.6565   -6.2184 H   0  0  0  0  0  0  0  0  0  0  0  0
   -3.3046   -5.8817   -3.6643 H   0  0  0  0  0  0  0  0  0  0  0  0
   -2.9831   -8.2836   -2.7893 H   0  0  0  0  0  0  0  0  0  0  0  0
  1  2  1  0
  2  3  1  0
  3  4  1  0
  3  5  1  0
  5  6  1  0
  6  7  1  0
  7  8  1  0
  8  9  2  0
  8 10  1  0
 10 11  1  0
 11 12  1  0
 12 13  1  0
 13 14  1  0
 14 15  1  0
 15 16  1  0
 16 17  1  0
 16 18  1  0
 18 19  2  0
 18 20  1  0
 20 21  1  0
 21 22  1  0
 21 23  1  0
 23 24  1  0
 24 25  2  0
 25 26  1  0
 26 27  2  0
 27 28  1  0
 28 29  2  0
 23 30  1  0
 15 31  1  0
 31 32  1  0
  6 33  1  0
 33 34  1  0
  5 35  1  0
 35 36  1  0
 35 37  1  0
 37 38  2  0
 37 39  1  0
 39 40  1  0
 40 41  1  0
 40 42  1  0
 39 43  1  0
 43 44  1  0
 44 45  2  0
 44 46  1  0
 46 47  1  0
 47 48  1  0
 47 49  1  0
 46 50  1  0
 50 51  1  0
 50 52  1  0
 52 53  2  0
 52 54  1  0
 54 55  1  0
 55 56  1  0
 56 57  1  0
 57 58  2  0
 58 59  1  0
 59 60  2  0
 60 61  1  0
 59 62  1  0
 62 63  1  0
 63 64  2  0
 63 65  1  0
 65 66  1  0
 66 67  1  0
 67 68  1  0
 68 69  1  0
 69 70  1  0
 70 71  2  0
 70 72  1  0
 65 73  1  0
 73 74  1  0
 74 75  2  0
 74 76  1  0
 76 77  1  0
 77 78  1  0
 77 79  1  0
 76 80  1  0
 80 81  1  0
 81 82  2  0
 81 83  1  0
 83 84  1  0
 84 85  1  0
 85 86  1  0
 86 87  1  0
 87 88  1  0
 88 89  1  0
 89 90  2  0
 89 91  1  0
 91 92  2  0
 92 93  1  0
 93 94  2  0
 14 10  1  0
 29 24  1  0
 61 56  2  0
 93 88  1  0
  1 95  1  0
  1 96  1  0
  1 97  1  0
  2 98  1  0
  2 99  1  0
  3100  1  6
  4101  1  0
  4102  1  0
  4103  1  0
  5104  1  6
  6105  1  6
  7106  1  0
  7107  1  0
 11108  1  0
 11109  1  0
 12110  1  0
 12111  1  0
 13112  1  0
 13113  1  0
 14114  1  1
 15115  1  1
 16116  1  1
 17117  1  0
 17118  1  0
 17119  1  0
 20120  1  0
 21121  1  6
 22122  1  0
 22123  1  0
 22124  1  0
 23125  1  6
 25126  1  0
 26127  1  0
 27128  1  0
 28129  1  0
 29130  1  0
 30131  1  0
 32132  1  0
 32133  1  0
 32134  1  0
 34135  1  0
 34136  1  0
 34137  1  0
 36138  1  0
 36139  1  0
 36140  1  0
 39141  1  6
 40142  1  0
 41143  1  0
 41144  1  0
 41145  1  0
 42146  1  0
 42147  1  0
 42148  1  0
 43149  1  0
 46150  1  6
 47151  1  0
 48152  1  0
 48153  1  0
 48154  1  0
 49155  1  0
 49156  1  0
 49157  1  0
 51158  1  0
 51159  1  0
 51160  1  0
 55161  1  0
 55162  1  0
 57163  1  0
 58164  1  0
 60165  1  0
 61166  1  0
 62167  1  0
 65168  1  1
 66169  1  0
 66170  1  0
 67171  1  0
 67172  1  0
 68173  1  0
 68174  1  0
 69175  1  0
 72176  1  0
 72177  1  0
 73178  1  0
 76179  1  6
 77180  1  0
 78181  1  0
 78182  1  0
 78183  1  0
 79184  1  0
 79185  1  0
 79186  1  0
 80187  1  0
 83188  1  0
 83189  1  0
 84190  1  0
 84191  1  0
 85192  1  0
 85193  1  0
 86194  1  0
 86195  1  0
 87196  1  0
 87197  1  0
 91198  1  0
 92199  1  0
M  END
$$$$

     RDKit          3D

199202  0  0  0  0  0  0  0  0999 V2000
    4.3647   -1.3503    3.7342 C   0  0  0  0  0  0  0  0  0  0  0  0
    2.8366   -1.1928    3.6699 C   0  0  0  0  0  0  0  0  0  0  0  0
    2.2893   -1.1953    2.3124 C   0  0  2  0  0  0  0  0  0  0  0  0
    2.6813   -2.4902    1.5791 C   0  0  0  0  0  0  0  0  0  0  0  0
    2.0171   -0.0314    1.4854 C   0  0  1  0  0  0  0  0  0  0  0  0
    0.9671    0.8738    2.1016 C   0  0  1  0  0  0  0  0  0  0  0  0
    0.1993    1.5570    0.9329 C   0  0  0  0  0  0  0  0  0  0  0  0
   -0.7869    2.5178    1.4413 C   0  0  0  0  0  0  0  0  0  0  0  0
   -0.6383    2.9524    2.6102 O   0  0  0  0  0  0  0  0  0  0  0  0
   -1.8740    2.9211    0.5942 N   0  0  0  0  0  0  0  0  0  0  0  0
   -2.1305    2.4382   -0.7440 C   0  0  0  0  0  0  0  0  0  0  0  0
   -3.0881    3.4551   -1.3240 C   0  0  0  0  0  0  0  0  0  0  0  0
   -3.8590    3.9679   -0.1183 C   0  0  0  0  0  0  0  0  0  0  0  0
   -2.8445    3.9165    1.0061 C   0  0  1  0  0  0  0  0  0  0  0  0
   -3.6249    3.4759    2.2555 C   0  0  1  0  0  0  0  0  0  0  0  0
   -4.3637    4.6143    2.8217 C   0  0  1  0  0  0  0  0  0  0  0  0
   -5.4096    5.2785    1.9999 C   0  0  0  0  0  0  0  0  0  0  0  0
   -4.8669    4.4311    4.2169 C   0  0  0  0  0  0  0  0  0  0  0  0
   -4.8286    3.3533    4.8439 O   0  0  0  0  0  0  0  0  0  0  0  0
   -5.4127    5.5834    4.8371 N   0  0  0  0  0  0  0  0  0  0  0  0
   -5.9453    5.6368    6.1769 C   0  0  2  0  0  0  0  0  0  0  0  0
   -7.4131    5.9956    6.0655 C   0  0  0  0  0  0  0  0  0  0  0  0
   -5.2046    6.7462    6.9284 C   0  0  1  0  0  0  0  0  0  0  0  0
   -3.7778    6.4466    7.1114 C   0  0  0  0  0  0  0  0  0  0  0  0
   -2.8892    7.5216    7.1915 C   0  0  0  0  0  0  0  0  0  0  0  0
   -1.5332    7.2728    7.3906 C   0  0  0  0  0  0  0  0  0  0  0  0
   -1.0190    6.0042    7.5140 C   0  0  0  0  0  0  0  0  0  0  0  0
   -1.8946    4.9473    7.4360 C   0  0  0  0  0  0  0  0  0  0  0  0
   -3.2420    5.1881    7.2380 C   0  0  0  0  0  0  0  0  0  0  0  0
   -5.4302    7.9183    6.1804 O   0  0  0  0  0  0  0  0  0  0  0  0
   -4.3761    2.4091    1.8879 O   0  0  0  0  0  0  0  0  0  0  0  0
   -4.0780    1.1873    2.4087 C   0  0  0  0  0  0  0  0  0  0  0  0
    0.0162   -0.0185    2.5711 O   0  0  0  0  0  0  0  0  0  0  0  0
   -0.4528    0.0021    3.8166 C   0  0  0  0  0  0  0  0  0  0  0  0
    3.1126    0.6984    0.8742 N   0  0  0  0  0  0  0  0  0  0  0  0
    3.2568    0.5996   -0.5982 C   0  0  0  0  0  0  0  0  0  0  0  0
    4.0338    1.5016    1.5711 C   0  0  0  0  0  0  0  0  0  0  0  0
    3.8017    1.5892    2.8497 O   0  0  0  0  0  0  0  0  0  0  0  0
    5.1742    2.2309    1.0957 C   0  0  1  0  0  0  0  0  0  0  0  0
    6.4302    2.0242    1.9848 C   0  0  0  0  0  0  0  0  0  0  0  0
    6.8615    0.6056    2.0583 C   0  0  0  0  0  0  0  0  0  0  0  0
    6.2174    2.6006    3.3648 C   0  0  0  0  0  0  0  0  0  0  0  0
    5.5680    2.2544   -0.2578 N   0  0  0  0  0  0  0  0  0  0  0  0
    5.7095    3.4489   -0.9874 C   0  0  0  0  0  0  0  0  0  0  0  0
    5.4748    4.5540   -0.3995 O   0  0  0  0  0  0  0  0  0  0  0  0
    6.1164    3.5473   -2.4076 C   0  0  1  0  0  0  0  0  0  0  0  0
    7.3636    4.3712   -2.5964 C   0  0  0  0  0  0  0  0  0  0  0  0
    7.6509    4.3800   -4.0845 C   0  0  0  0  0  0  0  0  0  0  0  0
    7.1885    5.7917   -2.1445 C   0  0  0  0  0  0  0  0  0  0  0  0
    6.2565    2.2875   -3.0822 N   0  0  0  0  0  0  0  0  0  0  0  0
    7.2394    1.2850   -2.7595 C   0  0  0  0  0  0  0  0  0  0  0  0
    5.3541    1.9984   -4.1843 C   0  0  0  0  0  0  0  0  0  0  0  0
    5.4325    0.8925   -4.7759 O   0  0  0  0  0  0  0  0  0  0  0  0
    4.4419    2.9630   -4.5356 O   0  0  0  0  0  0  0  0  0  0  0  0
    3.4932    2.8188   -5.5662 C   0  0  0  0  0  0  0  0  0  0  0  0
    2.5710    1.6774   -5.2758 C   0  0  0  0  0  0  0  0  0  0  0  0
    1.5391    1.9422   -4.3994 C   0  0  0  0  0  0  0  0  0  0  0  0
    0.6392    0.9424   -4.0623 C   0  0  0  0  0  0  0  0  0  0  0  0
    0.7368   -0.3293   -4.5775 C   0  0  0  0  0  0  0  0  0  0  0  0
    1.7877   -0.5530   -5.4573 C   0  0  0  0  0  0  0  0  0  0  0  0
    2.6957    0.4254   -5.8084 C   0  0  0  0  0  0  0  0  0  0  0  0
   -0.1118   -1.4079   -4.2169 N   0  0  0  0  0  0  0  0  0  0  0  0
   -1.0440   -1.4292   -3.1914 C   0  0  0  0  0  0  0  0  0  0  0  0
   -1.2312   -0.4062   -2.4374 O   0  0  0  0  0  0  0  0  0  0  0  0
   -1.9265   -2.5895   -2.8175 C   0  0  1  0  0  0  0  0  0  0  0  0
   -3.3187   -2.0807   -2.7860 C   0  0  0  0  0  0  0  0  0  0  0  0
   -4.3926   -3.0407   -2.4173 C   0  0  0  0  0  0  0  0  0  0  0  0
   -4.5455   -4.2341   -3.2932 C   0  0  0  0  0  0  0  0  0  0  0  0
   -4.8199   -3.7904   -4.6612 N   0  0  0  0  0  0  0  0  0  0  0  0
   -4.9959   -4.7941   -5.6330 C   0  0  0  0  0  0  0  0  0  0  0  0
   -4.9124   -5.9880   -5.2861 O   0  0  0  0  0  0  0  0  0  0  0  0
   -5.2667   -4.5309   -7.0095 N   0  0  0  0  0  0  0  0  0  0  0  0
   -1.7705   -3.6542   -3.7455 N   0  0  0  0  0  0  0  0  0  0  0  0
   -0.9069   -4.7710   -3.5863 C   0  0  0  0  0  0  0  0  0  0  0  0
   -0.1324   -4.9067   -2.5927 O   0  0  0  0  0  0  0  0  0  0  0  0
   -0.8547   -5.8978   -4.5893 C   0  0  1  0  0  0  0  0  0  0  0  0
   -0.6799   -5.4112   -5.9470 C   0  0  0  0  0  0  0  0  0  0  0  0
    0.5878   -4.6365   -6.1978 C   0  0  0  0  0  0  0  0  0  0  0  0
   -0.7514   -6.5300   -6.9948 C   0  0  0  0  0  0  0  0  0  0  0  0
    0.2050   -6.8314   -4.1934 N   0  0  0  0  0  0  0  0  0  0  0  0
   -0.1026   -7.6437   -3.0532 C   0  0  0  0  0  0  0  0  0  0  0  0
   -1.2159   -7.4553   -2.5222 O   0  0  0  0  0  0  0  0  0  0  0  0
    0.9059   -8.6222   -2.5981 C   0  0  0  0  0  0  0  0  0  0  0  0
    0.7701   -9.0817   -1.1963 C   0  0  0  0  0  0  0  0  0  0  0  0
   -0.5185   -9.7004   -0.7928 C   0  0  0  0  0  0  0  0  0  0  0  0
   -0.3580  -10.0844    0.6815 C   0  0  0  0  0  0  0  0  0  0  0  0
   -1.6074  -10.6922    1.2603 C   0  0  0  0  0  0  0  0  0  0  0  0
   -2.7212   -9.7602    1.2007 N   0  0  0  0  0  0  0  0  0  0  0  0
   -3.0004   -8.8256    2.2502 C   0  0  0  0  0  0  0  0  0  0  0  0
   -2.3884   -8.6535    3.3278 O   0  0  0  0  0  0  0  0  0  0  0  0
   -4.1739   -8.0619    1.8471 C   0  0  0  0  0  0  0  0  0  0  0  0
   -4.5754   -8.4893    0.6619 C   0  0  0  0  0  0  0  0  0  0  0  0
   -3.6969   -9.5714    0.1873 C   0  0  0  0  0  0  0  0  0  0  0  0
   -3.7756  -10.2113   -0.8902 O   0  0  0  0  0  0  0  0  0  0  0  0
    4.6655   -2.2542    4.3122 H   0  0  0  0  0  0  0  0  0  0  0  0
    4.8103   -1.3035    2.7423 H   0  0  0  0  0  0  0  0  0  0  0  0
    4.7407   -0.5016    4.3315 H   0  0  0  0  0  0  0  0  0  0  0  0
    2.4634   -2.0859    4.2481 H   0  0  0  0  0  0  0  0  0  0  0  0
    2.5615   -0.3468    4.3083 H   0  0  0  0  0  0  0  0  0  0  0  0
    1.1549   -1.5271    2.5435 H   0  0  0  0  0  0  0  0  0  0  0  0
    2.1399   -2.6186    0.6334 H   0  0  0  0  0  0  0  0  0  0  0  0
    2.4218   -3.3693    2.2064 H   0  0  0  0  0  0  0  0  0  0  0  0
    3.8000   -2.5395    1.4804 H   0  0  0  0  0  0  0  0  0  0  0  0
    1.4395   -0.4850    0.6029 H   0  0  0  0  0  0  0  0  0  0  0  0
    1.2520    1.5318    2.8806 H   0  0  0  0  0  0  0  0  0  0  0  0
   -0.2320    0.7223    0.3456 H   0  0  0  0  0  0  0  0  0  0  0  0
    0.9603    2.1276    0.3644 H   0  0  0  0  0  0  0  0  0  0  0  0
   -1.2351    2.4165   -1.3903 H   0  0  0  0  0  0  0  0  0  0  0  0
   -2.5873    1.4453   -0.7828 H   0  0  0  0  0  0  0  0  0  0  0  0
   -2.6164    4.3117   -1.8151 H   0  0  0  0  0  0  0  0  0  0  0  0
   -3.8156    3.0024   -2.0169 H   0  0  0  0  0  0  0  0  0  0  0  0
   -4.2532    4.9628   -0.3239 H   0  0  0  0  0  0  0  0  0  0  0  0
   -4.6442    3.1899    0.0750 H   0  0  0  0  0  0  0  0  0  0  0  0
   -2.4039    4.9077    1.1416 H   0  0  0  0  0  0  0  0  0  0  0  0
   -2.8466    3.1758    3.0358 H   0  0  0  0  0  0  0  0  0  0  0  0
   -3.5606    5.4591    2.9497 H   0  0  0  0  0  0  0  0  0  0  0  0
   -6.2342    5.6807    2.6862 H   0  0  0  0  0  0  0  0  0  0  0  0
   -5.0622    6.2165    1.4858 H   0  0  0  0  0  0  0  0  0  0  0  0
   -5.9563    4.6494    1.2927 H   0  0  0  0  0  0  0  0  0  0  0  0
   -5.4471    6.5151    4.3115 H   0  0  0  0  0  0  0  0  0  0  0  0
   -5.8566    4.7212    6.7572 H   0  0  0  0  0  0  0  0  0  0  0  0
   -7.9835    5.0843    5.8095 H   0  0  0  0  0  0  0  0  0  0  0  0
   -7.8409    6.4340    6.9675 H   0  0  0  0  0  0  0  0  0  0  0  0
   -7.5401    6.7276    5.2411 H   0  0  0  0  0  0  0  0  0  0  0  0
   -5.6667    6.8953    7.9154 H   0  0  0  0  0  0  0  0  0  0  0  0
   -3.2082    8.5452    7.1056 H   0  0  0  0  0  0  0  0  0  0  0  0
   -0.8349    8.0976    7.4537 H   0  0  0  0  0  0  0  0  0  0  0  0
    0.0333    5.8397    7.6668 H   0  0  0  0  0  0  0  0  0  0  0  0
   -1.5324    3.9508    7.5340 H   0  0  0  0  0  0  0  0  0  0  0  0
   -3.8902    4.3396    7.1879 H   0  0  0  0  0  0  0  0  0  0  0  0
   -4.6234    8.1011    5.6010 H   0  0  0  0  0  0  0  0  0  0  0  0
   -3.0377    0.8429    2.1643 H   0  0  0  0  0  0  0  0  0  0  0  0
   -4.2984    1.1174    3.4776 H   0  0  0  0  0  0  0  0  0  0  0  0
   -4.7210    0.3884    1.9267 H   0  0  0  0  0  0  0  0  0  0  0  0
   -1.2275   -0.8417    4.0000 H   0  0  0  0  0  0  0  0  0  0  0  0
   -1.0730    0.8939    4.1222 H   0  0  0  0  0  0  0  0  0  0  0  0
    0.2995   -0.2188    4.5893 H   0  0  0  0  0  0  0  0  0  0  0  0
    3.4691    1.5281   -1.0949 H   0  0  0  0  0  0  0  0  0  0  0  0
    3.9909   -0.1552   -0.8975 H   0  0  0  0  0  0  0  0  0  0  0  0
    2.2217    0.3336   -0.9928 H   0  0  0  0  0  0  0  0  0  0  0  0
    4.9618    3.3289    1.3401 H   0  0  0  0  0  0  0  0  0  0  0  0
    7.2785    2.6096    1.5453 H   0  0  0  0  0  0  0  0  0  0  0  0
    6.6754    0.2557    3.0942 H   0  0  0  0  0  0  0  0  0  0  0  0
    6.3350   -0.0749    1.3806 H   0  0  0  0  0  0  0  0  0  0  0  0
    7.9812    0.5144    1.9441 H   0  0  0  0  0  0  0  0  0  0  0  0
    5.6718    3.5614    3.3437 H   0  0  0  0  0  0  0  0  0  0  0  0
    5.7893    1.8566    4.0686 H   0  0  0  0  0  0  0  0  0  0  0  0
    7.2275    2.8250    3.7792 H   0  0  0  0  0  0  0  0  0  0  0  0
    5.7834    1.3583   -0.7495 H   0  0  0  0  0  0  0  0  0  0  0  0
    5.2774    4.1305   -2.8995 H   0  0  0  0  0  0  0  0  0  0  0  0
    8.2363    3.9064   -2.0880 H   0  0  0  0  0  0  0  0  0  0  0  0
    6.7237    4.5423   -4.6760 H   0  0  0  0  0  0  0  0  0  0  0  0
    8.1745    3.4679   -4.4201 H   0  0  0  0  0  0  0  0  0  0  0  0
    8.3185    5.2513   -4.3137 H   0  0  0  0  0  0  0  0  0  0  0  0
    6.1631    6.1813   -2.3054 H   0  0  0  0  0  0  0  0  0  0  0  0
    7.8764    6.4721   -2.6896 H   0  0  0  0  0  0  0  0  0  0  0  0
    7.4876    5.8395   -1.0628 H   0  0  0  0  0  0  0  0  0  0  0  0
    7.8662    1.5196   -1.8827 H   0  0  0  0  0  0  0  0  0  0  0  0
    6.8054    0.2749   -2.5943 H   0  0  0  0  0  0  0  0  0  0  0  0
    7.9733    1.2227   -3.6194 H   0  0  0  0  0  0  0  0  0  0  0  0
    4.0587    2.6488   -6.5044 H   0  0  0  0  0  0  0  0  0  0  0  0
    2.8941    3.7332   -5.6700 H   0  0  0  0  0  0  0  0  0  0  0  0
    1.4245    2.9335   -3.9688 H   0  0  0  0  0  0  0  0  0  0  0  0
   -0.1419    1.2304   -3.3818 H   0  0  0  0  0  0  0  0  0  0  0  0
    1.9172   -1.5230   -5.8953 H   0  0  0  0  0  0  0  0  0  0  0  0
    3.4888    0.1963   -6.5059 H   0  0  0  0  0  0  0  0  0  0  0  0
   -0.0125   -2.2799   -4.8028 H   0  0  0  0  0  0  0  0  0  0  0  0
   -1.6228   -2.9157   -1.7742 H   0  0  0  0  0  0  0  0  0  0  0  0
   -3.5504   -1.5897   -3.7671 H   0  0  0  0  0  0  0  0  0  0  0  0
   -3.3405   -1.2219   -2.0573 H   0  0  0  0  0  0  0  0  0  0  0  0
   -5.3828   -2.4924   -2.4254 H   0  0  0  0  0  0  0  0  0  0  0  0
   -4.3075   -3.4067   -1.3694 H   0  0  0  0  0  0  0  0  0  0  0  0
   -5.5227   -4.7243   -2.9725 H   0  0  0  0  0  0  0  0  0  0  0  0
   -3.7232   -4.9512   -3.2486 H   0  0  0  0  0  0  0  0  0  0  0  0
   -4.8894   -2.7979   -4.9404 H   0  0  0  0  0  0  0  0  0  0  0  0
   -4.4053   -4.3151   -7.5921 H   0  0  0  0  0  0  0  0  0  0  0  0
   -6.2079   -4.5390   -7.4348 H   0  0  0  0  0  0  0  0  0  0  0  0
   -2.3307   -3.6231   -4.6340 H   0  0  0  0  0  0  0  0  0  0  0  0
   -1.8579   -6.4138   -4.4736 H   0  0  0  0  0  0  0  0  0  0  0  0
   -1.5527   -4.7106   -6.1708 H   0  0  0  0  0  0  0  0  0  0  0  0
    1.1155   -4.4518   -5.2249 H   0  0  0  0  0  0  0  0  0  0  0  0
    0.3734   -3.6821   -6.7246 H   0  0  0  0  0  0  0  0  0  0  0  0
    1.2240   -5.2241   -6.8827 H   0  0  0  0  0  0  0  0  0  0  0  0
   -0.0211   -7.3151   -6.7693 H   0  0  0  0  0  0  0  0  0  0  0  0
   -0.5287   -6.1037   -7.9901 H   0  0  0  0  0  0  0  0  0  0  0  0
   -1.7936   -6.9289   -7.0347 H   0  0  0  0  0  0  0  0  0  0  0  0
    1.1108   -6.8967   -4.7096 H   0  0  0  0  0  0  0  0  0  0  0  0
    1.9046   -8.1007   -2.6715 H   0  0  0  0  0  0  0  0  0  0  0  0
    0.9868   -9.4747   -3.3039 H   0  0  0  0  0  0  0  0  0  0  0  0
    1.5762   -9.8623   -1.0362 H   0  0  0  0  0  0  0  0  0  0  0  0
    1.0013   -8.2782   -0.4475 H   0  0  0  0  0  0  0  0  0  0  0  0
   -1.3486   -8.9475   -0.7837 H   0  0  0  0  0  0  0  0  0  0  0  0
   -0.7829  -10.5967   -1.3611 H   0  0  0  0  0  0  0  0  0  0  0  0
    0.0071   -9.2172    1.2277 H   0  0  0  0  0  0  0  0  0  0  0  0
    0.4442  -10.8548    0.7299 H   0  0  0  0  0  0  0  0  0  0  0  0
   -1.8614  -11.5956    0.6677 H   0  0  0  0  0  0  0  0  0  0  0  0
   -1.3995  -10.9261    2.3061 H   0  0  0  0  0  0  0  0  0  0  0  0
   -4.6517   -7.2607    2.4276 H   0  0  0  0  0  0  0  0  0  0  0  0
   -5.4410   -8.0618    0.1588 H   0  0  0  0  0  0  0  0  0  0  0  0
  1  2  1  0
  2  3  1  0
  3  4  1  0
  3  5  1  0
  5  6  1  0
  6  7  1  0
  7  8  1  0
  8  9  2  0
  8 10  1  0
 10 11  1  0
 11 12  1  0
 12 13  1  0
 13 14  1  0
 14 15  1  0
 15 16  1  0
 16 17  1  0
 16 18  1  0
 18 19  2  0
 18 20  1  0
 20 21  1  0
 21 22  1  0
 21 23  1  0
 23 24  1  0
 24 25  2  0
 25 26  1  0
 26 27  2  0
 27 28  1  0
 28 29  2  0
 23 30  1  0
 15 31  1  0
 31 32  1  0
  6 33  1  0
 33 34  1  0
  5 35  1  0
 35 36  1  0
 35 37  1  0
 37 38  2  0
 37 39  1  0
 39 40  1  0
 40 41  1  0
 40 42  1  0
 39 43  1  0
 43 44  1  0
 44 45  2  0
 44 46  1  0
 46 47  1  0
 47 48  1  0
 47 49  1  0
 46 50  1  0
 50 51  1  0
 50 52  1  0
 52 53  2  0
 52 54  1  0
 54 55  1  0
 55 56  1  0
 56 57  1  0
 57 58  2  0
 58 59  1  0
 59 60  2  0
 60 61  1  0
 59 62  1  0
 62 63  1  0
 63 64  2  0
 63 65  1  0
 65 66  1  0
 66 67  1  0
 67 68  1  0
 68 69  1  0
 69 70  1  0
 70 71  2  0
 70 72  1  0
 65 73  1  0
 73 74  1  0
 74 75  2  0
 74 76  1  0
 76 77  1  0
 77 78  1  0
 77 79  1  0
 76 80  1  0
 80 81  1  0
 81 82  2  0
 81 83  1  0
 83 84  1  0
 84 85  1  0
 85 86  1  0
 86 87  1  0
 87 88  1  0
 88 89  1  0
 89 90  2  0
 89 91  1  0
 91 92  2  0
 92 93  1  0
 93 94  2  0
 14 10  1  0
 29 24  1  0
 61 56  2  0
 93 88  1  0
  1 95  1  0
  1 96  1  0
  1 97  1  0
  2 98  1  0
  2 99  1  0
  3100  1  1
  4101  1  0
  4102  1  0
  4103  1  0
  5104  1  6
  6105  1  1
  7106  1  0
  7107  1  0
 11108  1  0
 11109  1  0
 12110  1  0
 12111  1  0
 13112  1  0
 13113  1  0
 14114  1  1
 15115  1  1
 16116  1  1
 17117  1  0
 17118  1  0
 17119  1  0
 20120  1  0
 21121  1  1
 22122  1  0
 22123  1  0
 22124  1  0
 23125  1  1
 25126  1  0
 26127  1  0
 27128  1  0
 28129  1  0
 29130  1  0
 30131  1  0
 32132  1  0
 32133  1  0
 32134  1  0
 34135  1  0
 34136  1  0
 34137  1  0
 36138  1  0
 36139  1  0
 36140  1  0
 39141  1  1
 40142  1  0
 41143  1  0
 41144  1  0
 41145  1  0
 42146  1  0
 42147  1  0
 42148  1  0
 43149  1  0
 46150  1  6
 47151  1  0
 48152  1  0
 48153  1  0
 48154  1  0
 49155  1  0
 49156  1  0
 49157  1  0
 51158  1  0
 51159  1  0
 51160  1  0
 55161  1  0
 55162  1  0
 57163  1  0
 58164  1  0
 60165  1  0
 61166  1  0
 62167  1  0
 65168  1  1
 66169  1  0
 66170  1  0
 67171  1  0
 67172  1  0
 68173  1  0
 68174  1  0
 69175  1  0
 72176  1  0
 72177  1  0
 73178  1  0
 76179  1  6
 77180  1  0
 78181  1  0
 78182  1  0
 78183  1  0
 79184  1  0
 79185  1  0
 79186  1  0
 80187  1  0
 83188  1  0
 83189  1  0
 84190  1  0
 84191  1  0
 85192  1  0
 85193  1  0
 86194  1  0
 86195  1  0
 87196  1  0
 87197  1  0
 91198  1  0
 92199  1  0
M  END
$$$$

     RDKit          3D

199202  0  0  0  0  0  0  0  0999 V2000
   -5.8348    0.5991   -1.1364 C   0  0  0  0  0  0  0  0  0  0  0  0
   -4.3909    0.1369   -0.9990 C   0  0  0  0  0  0  0  0  0  0  0  0
   -4.2922   -1.0283   -0.0397 C   0  0  2  0  0  0  0  0  0  0  0  0
   -4.7596   -0.6328    1.3050 C   0  0  0  0  0  0  0  0  0  0  0  0
   -3.0011   -1.8079   -0.1392 C   0  0  1  0  0  0  0  0  0  0  0  0
   -1.7852   -1.1062    0.1592 C   0  0  1  0  0  0  0  0  0  0  0  0
   -0.4739   -1.7915    0.3671 C   0  0  0  0  0  0  0  0  0  0  0  0
   -0.3229   -2.6217    1.5556 C   0  0  0  0  0  0  0  0  0  0  0  0
   -0.5319   -1.9860    2.6671 O   0  0  0  0  0  0  0  0  0  0  0  0
    0.0181   -3.9800    1.6983 N   0  0  0  0  0  0  0  0  0  0  0  0
    0.2472   -5.0368    0.7645 C   0  0  0  0  0  0  0  0  0  0  0  0
   -0.1015   -6.3146    1.4610 C   0  0  0  0  0  0  0  0  0  0  0  0
   -0.2090   -5.9948    2.8984 C   0  0  0  0  0  0  0  0  0  0  0  0
    0.2727   -4.5721    3.0242 C   0  0  1  0  0  0  0  0  0  0  0  0
    1.7007   -4.4988    3.4373 C   0  0  1  0  0  0  0  0  0  0  0  0
    1.9826   -4.6460    4.8782 C   0  0  1  0  0  0  0  0  0  0  0  0
    3.5500   -4.6067    4.9933 C   0  0  0  0  0  0  0  0  0  0  0  0
    1.5453   -3.6398    5.8246 C   0  0  0  0  0  0  0  0  0  0  0  0
    2.4332   -2.8458    6.3278 O   0  0  0  0  0  0  0  0  0  0  0  0
    0.2345   -3.3924    6.3050 N   0  0  0  0  0  0  0  0  0  0  0  0
    0.0090   -2.3072    7.2892 C   0  0  2  0  0  0  0  0  0  0  0  0
   -0.4344   -2.9334    8.6042 C   0  0  0  0  0  0  0  0  0  0  0  0
   -1.0752   -1.4526    6.7694 C   0  0  1  0  0  0  0  0  0  0  0  0
   -1.4118   -0.2509    7.5555 C   0  0  0  0  0  0  0  0  0  0  0  0
   -2.3424    0.6214    6.9726 C   0  0  0  0  0  0  0  0  0  0  0  0
   -2.7264    1.7948    7.6002 C   0  0  0  0  0  0  0  0  0  0  0  0
   -2.1849    2.1284    8.8353 C   0  0  0  0  0  0  0  0  0  0  0  0
   -1.2760    1.2839    9.4108 C   0  0  0  0  0  0  0  0  0  0  0  0
   -0.9098    0.1150    8.7595 C   0  0  0  0  0  0  0  0  0  0  0  0
   -0.7336   -0.9332    5.4884 O   0  0  0  0  0  0  0  0  0  0  0  0
    2.6023   -5.1535    2.6233 O   0  0  0  0  0  0  0  0  0  0  0  0
    3.4813   -4.3495    1.9497 C   0  0  0  0  0  0  0  0  0  0  0  0
   -1.5085    0.1355   -0.4241 O   0  0  0  0  0  0  0  0  0  0  0  0
   -1.4341    1.1132    0.5860 C   0  0  0  0  0  0  0  0  0  0  0  0
   -3.1524   -3.1293    0.3882 N   0  0  0  0  0  0  0  0  0  0  0  0
   -3.3322   -3.2711    1.8288 C   0  0  0  0  0  0  0  0  0  0  0  0
   -3.1992   -4.3302   -0.3603 C   0  0  0  0  0  0  0  0  0  0  0  0
   -3.3882   -5.3847    0.4190 O   0  0  0  0  0  0  0  0  0  0  0  0
   -3.0999   -4.6807   -1.7482 C   0  0  1  0  0  0  0  0  0  0  0  0
   -4.5590   -5.0219   -2.2682 C   0  0  0  0  0  0  0  0  0  0  0  0
   -5.4641   -3.8651   -2.1942 C   0  0  0  0  0  0  0  0  0  0  0  0
   -5.0745   -6.1182   -1.3102 C   0  0  0  0  0  0  0  0  0  0  0  0
   -2.4427   -3.8422   -2.6844 N   0  0  0  0  0  0  0  0  0  0  0  0
   -2.6861   -3.6383   -4.0583 C   0  0  0  0  0  0  0  0  0  0  0  0
   -3.6835   -4.3122   -4.5445 O   0  0  0  0  0  0  0  0  0  0  0  0
   -2.0105   -2.8010   -5.0099 C   0  0  1  0  0  0  0  0  0  0  0  0
   -2.3495   -1.3088   -4.9329 C   0  0  0  0  0  0  0  0  0  0  0  0
   -3.7848   -0.9933   -5.1382 C   0  0  0  0  0  0  0  0  0  0  0  0
   -1.7409   -0.5322   -3.8474 C   0  0  0  0  0  0  0  0  0  0  0  0
   -0.6132   -2.8602   -5.2482 N   0  0  0  0  0  0  0  0  0  0  0  0
   -0.2120   -2.9761   -6.6832 C   0  0  0  0  0  0  0  0  0  0  0  0
    0.4538   -2.8092   -4.3339 C   0  0  0  0  0  0  0  0  0  0  0  0
    0.3255   -2.8354   -3.0888 O   0  0  0  0  0  0  0  0  0  0  0  0
    1.7505   -2.7180   -4.8139 O   0  0  0  0  0  0  0  0  0  0  0  0
    2.9407   -2.6736   -4.1012 C   0  0  0  0  0  0  0  0  0  0  0  0
    3.0680   -1.6396   -3.0847 C   0  0  0  0  0  0  0  0  0  0  0  0
    2.8925   -2.0471   -1.7496 C   0  0  0  0  0  0  0  0  0  0  0  0
    2.9438   -1.1579   -0.7052 C   0  0  0  0  0  0  0  0  0  0  0  0
    3.1684    0.1879   -0.8917 C   0  0  0  0  0  0  0  0  0  0  0  0
    3.3436    0.6039   -2.1963 C   0  0  0  0  0  0  0  0  0  0  0  0
    3.2928   -0.3026   -3.2684 C   0  0  0  0  0  0  0  0  0  0  0  0
    3.2319    1.1048    0.1847 N   0  0  0  0  0  0  0  0  0  0  0  0
    3.4713    0.7672    1.5361 C   0  0  0  0  0  0  0  0  0  0  0  0
    3.6888   -0.3882    1.9509 O   0  0  0  0  0  0  0  0  0  0  0  0
    3.4741    1.8396    2.6098 C   0  0  1  0  0  0  0  0  0  0  0  0
    4.8347    2.0180    3.1582 C   0  0  0  0  0  0  0  0  0  0  0  0
    5.0004    3.0362    4.2183 C   0  0  0  0  0  0  0  0  0  0  0  0
    4.6633    4.4403    3.8834 C   0  0  0  0  0  0  0  0  0  0  0  0
    5.4289    5.0018    2.7881 N   0  0  0  0  0  0  0  0  0  0  0  0
    5.2169    6.3414    2.3471 C   0  0  0  0  0  0  0  0  0  0  0  0
    4.3542    7.1037    2.8800 O   0  0  0  0  0  0  0  0  0  0  0  0
    5.9930    6.8604    1.2692 N   0  0  0  0  0  0  0  0  0  0  0  0
    2.9471    3.0467    1.9974 N   0  0  0  0  0  0  0  0  0  0  0  0
    1.5568    3.2968    2.2584 C   0  0  0  0  0  0  0  0  0  0  0  0
    0.8587    2.5318    2.9628 O   0  0  0  0  0  0  0  0  0  0  0  0
    0.8521    4.4990    1.6926 C   0  0  1  0  0  0  0  0  0  0  0  0
    0.0667    5.2617    2.6931 C   0  0  0  0  0  0  0  0  0  0  0  0
    0.9005    5.7990    3.8319 C   0  0  0  0  0  0  0  0  0  0  0  0
   -1.0423    4.4416    3.3232 C   0  0  0  0  0  0  0  0  0  0  0  0
    1.7898    5.3510    0.9994 N   0  0  0  0  0  0  0  0  0  0  0  0
    1.9379    5.1993   -0.4217 C   0  0  0  0  0  0  0  0  0  0  0  0
    1.2396    4.3287   -0.9625 O   0  0  0  0  0  0  0  0  0  0  0  0
    2.9017    6.0904   -1.0820 C   0  0  0  0  0  0  0  0  0  0  0  0
    3.1441    5.7922   -2.5130 C   0  0  0  0  0  0  0  0  0  0  0  0
    1.9216    5.9009   -3.3497 C   0  0  0  0  0  0  0  0  0  0  0  0
    2.2209    5.5892   -4.8135 C   0  0  0  0  0  0  0  0  0  0  0  0
    3.2234    6.5015   -5.4314 C   0  0  0  0  0  0  0  0  0  0  0  0
    3.4341    6.1025   -6.8313 N   0  0  0  0  0  0  0  0  0  0  0  0
    4.4446    5.1575   -7.1894 C   0  0  0  0  0  0  0  0  0  0  0  0
    5.2405    4.5785   -6.3992 O   0  0  0  0  0  0  0  0  0  0  0  0
    4.3399    5.0219   -8.6414 C   0  0  0  0  0  0  0  0  0  0  0  0
    3.3747    5.8015   -9.1011 C   0  0  0  0  0  0  0  0  0  0  0  0
    2.7414    6.5333   -7.9870 C   0  0  0  0  0  0  0  0  0  0  0  0
    1.8005    7.3582   -8.0283 O   0  0  0  0  0  0  0  0  0  0  0  0
   -6.0429    1.5302   -0.5495 H   0  0  0  0  0  0  0  0  0  0  0  0
   -5.9965    0.8997   -2.1969 H   0  0  0  0  0  0  0  0  0  0  0  0
   -6.5507   -0.2081   -0.9164 H   0  0  0  0  0  0  0  0  0  0  0  0
   -3.8276    1.0256   -0.7224 H   0  0  0  0  0  0  0  0  0  0  0  0
   -4.0442   -0.1426   -2.0155 H   0  0  0  0  0  0  0  0  0  0  0  0
   -5.0802   -1.7520   -0.4234 H   0  0  0  0  0  0  0  0  0  0  0  0
   -5.3122   -1.4819    1.7952 H   0  0  0  0  0  0  0  0  0  0  0  0
   -5.5962    0.1373    1.1885 H   0  0  0  0  0  0  0  0  0  0  0  0
   -4.0182   -0.2821    2.0200 H   0  0  0  0  0  0  0  0  0  0  0  0
   -2.9671   -1.9732   -1.3008 H   0  0  0  0  0  0  0  0  0  0  0  0
   -2.0047   -0.7017    1.2972 H   0  0  0  0  0  0  0  0  0  0  0  0
    0.3592   -1.0101    0.4558 H   0  0  0  0  0  0  0  0  0  0  0  0
   -0.1738   -2.3316   -0.5664 H   0  0  0  0  0  0  0  0  0  0  0  0
   -0.4257   -4.9687   -0.1307 H   0  0  0  0  0  0  0  0  0  0  0  0
    1.2713   -5.0612    0.3246 H   0  0  0  0  0  0  0  0  0  0  0  0
    0.6750   -7.1061    1.2687 H   0  0  0  0  0  0  0  0  0  0  0  0
   -1.0998   -6.6624    1.0995 H   0  0  0  0  0  0  0  0  0  0  0  0
   -1.2067   -6.1307    3.3660 H   0  0  0  0  0  0  0  0  0  0  0  0
    0.5001   -6.6780    3.4514 H   0  0  0  0  0  0  0  0  0  0  0  0
   -0.4005   -4.0588    3.7025 H   0  0  0  0  0  0  0  0  0  0  0  0
    1.9819   -3.3944    3.2183 H   0  0  0  0  0  0  0  0  0  0  0  0
    1.6366   -5.6378    5.2750 H   0  0  0  0  0  0  0  0  0  0  0  0
    3.9389   -5.3570    4.2813 H   0  0  0  0  0  0  0  0  0  0  0  0
    3.9079   -3.5815    4.8497 H   0  0  0  0  0  0  0  0  0  0  0  0
    3.8312   -4.9473    6.0150 H   0  0  0  0  0  0  0  0  0  0  0  0
   -0.5533   -3.9821    5.9780 H   0  0  0  0  0  0  0  0  0  0  0  0
    0.9627   -1.8308    7.4578 H   0  0  0  0  0  0  0  0  0  0  0  0
   -1.3997   -2.4865    8.8831 H   0  0  0  0  0  0  0  0  0  0  0  0
   -0.6799   -4.0238    8.4457 H   0  0  0  0  0  0  0  0  0  0  0  0
    0.2680   -2.7961    9.4312 H   0  0  0  0  0  0  0  0  0  0  0  0
   -1.9784   -2.0830    6.5953 H   0  0  0  0  0  0  0  0  0  0  0  0
   -2.7798    0.3984    6.0148 H   0  0  0  0  0  0  0  0  0  0  0  0
   -3.4528    2.4405    7.1196 H   0  0  0  0  0  0  0  0  0  0  0  0
   -2.4675    3.0422    9.3475 H   0  0  0  0  0  0  0  0  0  0  0  0
   -0.8680    1.5514   10.3569 H   0  0  0  0  0  0  0  0  0  0  0  0
   -0.1918   -0.4982    9.2468 H   0  0  0  0  0  0  0  0  0  0  0  0
   -0.6948   -1.7055    4.8842 H   0  0  0  0  0  0  0  0  0  0  0  0
    4.1510   -3.7225    2.5225 H   0  0  0  0  0  0  0  0  0  0  0  0
    4.0784   -4.8791    1.1844 H   0  0  0  0  0  0  0  0  0  0  0  0
    2.8401   -3.6311    1.3641 H   0  0  0  0  0  0  0  0  0  0  0  0
   -1.2124    2.1111    0.1237 H   0  0  0  0  0  0  0  0  0  0  0  0
   -0.6032    0.9172    1.2672 H   0  0  0  0  0  0  0  0  0  0  0  0
   -2.3533    1.0934    1.1472 H   0  0  0  0  0  0  0  0  0  0  0  0
   -3.1735   -2.3914    2.4150 H   0  0  0  0  0  0  0  0  0  0  0  0
   -4.3968   -3.6265    2.0157 H   0  0  0  0  0  0  0  0  0  0  0  0
   -2.6913   -4.0985    2.2015 H   0  0  0  0  0  0  0  0  0  0  0  0
   -2.6619   -5.7141   -1.8938 H   0  0  0  0  0  0  0  0  0  0  0  0
   -4.4793   -5.5074   -3.2083 H   0  0  0  0  0  0  0  0  0  0  0  0
   -5.0102   -2.9248   -2.5317 H   0  0  0  0  0  0  0  0  0  0  0  0
   -6.0026   -3.7803   -1.2069 H   0  0  0  0  0  0  0  0  0  0  0  0
   -6.3088   -4.0492   -2.9180 H   0  0  0  0  0  0  0  0  0  0  0  0
   -5.9148   -6.6557   -1.8310 H   0  0  0  0  0  0  0  0  0  0  0  0
   -4.2851   -6.8342   -1.1475 H   0  0  0  0  0  0  0  0  0  0  0  0
   -5.4255   -5.6599   -0.3924 H   0  0  0  0  0  0  0  0  0  0  0  0
   -1.5849   -3.3085   -2.3142 H   0  0  0  0  0  0  0  0  0  0  0  0
   -2.4825   -3.0268   -6.0575 H   0  0  0  0  0  0  0  0  0  0  0  0
   -1.8397   -0.9182   -5.8976 H   0  0  0  0  0  0  0  0  0  0  0  0
   -3.8455    0.0271   -5.6225 H   0  0  0  0  0  0  0  0  0  0  0  0
   -4.2755   -1.6552   -5.8938 H   0  0  0  0  0  0  0  0  0  0  0  0
   -4.3958   -0.9119   -4.2153 H   0  0  0  0  0  0  0  0  0  0  0  0
   -2.3181    0.4100   -3.6457 H   0  0  0  0  0  0  0  0  0  0  0  0
   -0.6908   -0.1707   -4.0919 H   0  0  0  0  0  0  0  0  0  0  0  0
   -1.6547   -1.0377   -2.9025 H   0  0  0  0  0  0  0  0  0  0  0  0
   -0.1304   -1.9674   -7.1218 H   0  0  0  0  0  0  0  0  0  0  0  0
    0.7668   -3.4546   -6.6960 H   0  0  0  0  0  0  0  0  0  0  0  0
   -0.9777   -3.6241   -7.1511 H   0  0  0  0  0  0  0  0  0  0  0  0
    3.1409   -3.6704   -3.6474 H   0  0  0  0  0  0  0  0  0  0  0  0
    3.7581   -2.5088   -4.8655 H   0  0  0  0  0  0  0  0  0  0  0  0
    2.7127   -3.1062   -1.5307 H   0  0  0  0  0  0  0  0  0  0  0  0
    2.7930   -1.5424    0.2749 H   0  0  0  0  0  0  0  0  0  0  0  0
    3.5287    1.6562   -2.4337 H   0  0  0  0  0  0  0  0  0  0  0  0
    3.4309    0.0347   -4.2920 H   0  0  0  0  0  0  0  0  0  0  0  0
    3.0866    2.1352   -0.0299 H   0  0  0  0  0  0  0  0  0  0  0  0
    2.7720    1.5169    3.3926 H   0  0  0  0  0  0  0  0  0  0  0  0
    5.1200    1.0259    3.6270 H   0  0  0  0  0  0  0  0  0  0  0  0
    5.5596    2.1170    2.3171 H   0  0  0  0  0  0  0  0  0  0  0  0
    6.0147    2.9711    4.6898 H   0  0  0  0  0  0  0  0  0  0  0  0
    4.3105    2.7270    5.0627 H   0  0  0  0  0  0  0  0  0  0  0  0
    3.5856    4.6378    3.7494 H   0  0  0  0  0  0  0  0  0  0  0  0
    4.9416    5.0870    4.7748 H   0  0  0  0  0  0  0  0  0  0  0  0
    6.1409    4.3744    2.3401 H   0  0  0  0  0  0  0  0  0  0  0  0
    7.0166    6.6835    1.2081 H   0  0  0  0  0  0  0  0  0  0  0  0
    5.4721    7.4206    0.5582 H   0  0  0  0  0  0  0  0  0  0  0  0
    3.5038    3.6961    1.4124 H   0  0  0  0  0  0  0  0  0  0  0  0
    0.1496    4.0408    0.9497 H   0  0  0  0  0  0  0  0  0  0  0  0
   -0.4193    6.1195    2.1711 H   0  0  0  0  0  0  0  0  0  0  0  0
    0.2265    6.3881    4.5069 H   0  0  0  0  0  0  0  0  0  0  0  0
    1.3127    4.9160    4.3705 H   0  0  0  0  0  0  0  0  0  0  0  0
    1.7316    6.4077    3.4826 H   0  0  0  0  0  0  0  0  0  0  0  0
   -1.8043    5.1306    3.7659 H   0  0  0  0  0  0  0  0  0  0  0  0
   -0.6462    3.8678    4.2090 H   0  0  0  0  0  0  0  0  0  0  0  0
   -1.4867    3.7023    2.6447 H   0  0  0  0  0  0  0  0  0  0  0  0
    2.3539    6.0726    1.5346 H   0  0  0  0  0  0  0  0  0  0  0  0
    2.6968    7.1665   -0.8788 H   0  0  0  0  0  0  0  0  0  0  0  0
    3.8920    5.9084   -0.5517 H   0  0  0  0  0  0  0  0  0  0  0  0
    3.5326    4.7379   -2.5741 H   0  0  0  0  0  0  0  0  0  0  0  0
    3.9387    6.4680   -2.9544 H   0  0  0  0  0  0  0  0  0  0  0  0
    1.1584    5.1594   -3.0568 H   0  0  0  0  0  0  0  0  0  0  0  0
    1.5105    6.9343   -3.2619 H   0  0  0  0  0  0  0  0  0  0  0  0
    2.5248    4.5322   -4.8744 H   0  0  0  0  0  0  0  0  0  0  0  0
    1.2670    5.7077   -5.3730 H   0  0  0  0  0  0  0  0  0  0  0  0
    2.8461    7.5600   -5.4818 H   0  0  0  0  0  0  0  0  0  0  0  0
    4.2037    6.5195   -4.9324 H   0  0  0  0  0  0  0  0  0  0  0  0
    4.9962    4.3578   -9.1961 H   0  0  0  0  0  0  0  0  0  0  0  0
    3.1090    5.8757  -10.1554 H   0  0  0  0  0  0  0  0  0  0  0  0
  1  2  1  0
  2  3  1  0
  3  4  1  0
  3  5  1  0
  5  6  1  0
  6  7  1  0
  7  8  1  0
  8  9  2  0
  8 10  1  0
 10 11  1  0
 11 12  1  0
 12 13  1  0
 13 14  1  0
 14 15  1  0
 15 16  1  0
 16 17  1  0
 16 18  1  0
 18 19  2  0
 18 20  1  0
 20 21  1  0
 21 22  1  0
 21 23  1  0
 23 24  1  0
 24 25  2  0
 25 26  1  0
 26 27  2  0
 27 28  1  0
 28 29  2  0
 23 30  1  0
 15 31  1  0
 31 32  1  0
  6 33  1  0
 33 34  1  0
  5 35  1  0
 35 36  1  0
 35 37  1  0
 37 38  2  0
 37 39  1  0
 39 40  1  0
 40 41  1  0
 40 42  1  0
 39 43  1  0
 43 44  1  0
 44 45  2  0
 44 46  1  0
 46 47  1  0
 47 48  1  0
 47 49  1  0
 46 50  1  0
 50 51  1  0
 50 52  1  0
 52 53  2  0
 52 54  1  0
 54 55  1  0
 55 56  1  0
 56 57  1  0
 57 58  2  0
 58 59  1  0
 59 60  2  0
 60 61  1  0
 59 62  1  0
 62 63  1  0
 63 64  2  0
 63 65  1  0
 65 66  1  0
 66 67  1  0
 67 68  1  0
 68 69  1  0
 69 70  1  0
 70 71  2  0
 70 72  1  0
 65 73  1  0
 73 74  1  0
 74 75  2  0
 74 76  1  0
 76 77  1  0
 77 78  1  0
 77 79  1  0
 76 80  1  0
 80 81  1  0
 81 82  2  0
 81 83  1  0
 83 84  1  0
 84 85  1  0
 85 86  1  0
 86 87  1  0
 87 88  1  0
 88 89  1  0
 89 90  2  0
 89 91  1  0
 91 92  2  0
 92 93  1  0
 93 94  2  0
 14 10  1  0
 29 24  1  0
 61 56  2  0
 93 88  1  0
  1 95  1  0
  1 96  1  0
  1 97  1  0
  2 98  1  0
  2 99  1  0
  3100  1  6
  4101  1  0
  4102  1  0
  4103  1  0
  5104  1  6
  6105  1  1
  7106  1  0
  7107  1  0
 11108  1  0
 11109  1  0
 12110  1  0
 12111  1  0
 13112  1  0
 13113  1  0
 14114  1  1
 15115  1  6
 16116  1  1
 17117  1  0
 17118  1  0
 17119  1  0
 20120  1  0
 21121  1  1
 22122  1  0
 22123  1  0
 22124  1  0
 23125  1  6
 25126  1  0
 26127  1  0
 27128  1  0
 28129  1  0
 29130  1  0
 30131  1  0
 32132  1  0
 32133  1  0
 32134  1  0
 34135  1  0
 34136  1  0
 34137  1  0
 36138  1  0
 36139  1  0
 36140  1  0
 39141  1  1
 40142  1  0
 41143  1  0
 41144  1  0
 41145  1  0
 42146  1  0
 42147  1  0
 42148  1  0
 43149  1  0
 46150  1  6
 47151  1  0
 48152  1  0
 48153  1  0
 48154  1  0
 49155  1  0
 49156  1  0
 49157  1  0
 51158  1  0
 51159  1  0
 51160  1  0
 55161  1  0
 55162  1  0
 57163  1  0
 58164  1  0
 60165  1  0
 61166  1  0
 62167  1  0
 65168  1  1
 66169  1  0
 66170  1  0
 67171  1  0
 67172  1  0
 68173  1  0
 68174  1  0
 69175  1  0
 72176  1  0
 72177  1  0
 73178  1  0
 76179  1  6
 77180  1  0
 78181  1  0
 78182  1  0
 78183  1  0
 79184  1  0
 79185  1  0
 79186  1  0
 80187  1  0
 83188  1  0
 83189  1  0
 84190  1  0
 84191  1  0
 85192  1  0
 85193  1  0
 86194  1  0
 86195  1  0
 87196  1  0
 87197  1  0
 91198  1  0
 92199  1  0
M  END
$$$$

     RDKit          3D

199202  0  0  0  0  0  0  0  0999 V2000
   -2.6338   -1.1915   -5.2992 C   0  0  0  0  0  0  0  0  0  0  0  0
   -3.1550   -0.8675   -3.9345 C   0  0  0  0  0  0  0  0  0  0  0  0
   -2.0718   -0.8811   -2.8780 C   0  0  2  0  0  0  0  0  0  0  0  0
   -1.4920   -2.2698   -2.8610 C   0  0  0  0  0  0  0  0  0  0  0  0
   -2.5316   -0.3894   -1.5434 C   0  0  1  0  0  0  0  0  0  0  0  0
   -1.5404   -0.3775   -0.4575 C   0  0  1  0  0  0  0  0  0  0  0  0
   -0.4394    0.4632   -0.1512 C   0  0  0  0  0  0  0  0  0  0  0  0
   -0.4833    1.8863    0.1335 C   0  0  0  0  0  0  0  0  0  0  0  0
   -0.5389    2.6672   -0.8833 O   0  0  0  0  0  0  0  0  0  0  0  0
   -0.4664    2.5481    1.3712 N   0  0  0  0  0  0  0  0  0  0  0  0
   -0.5020    4.0258    1.4501 C   0  0  0  0  0  0  0  0  0  0  0  0
    0.5022    4.3533    2.5203 C   0  0  0  0  0  0  0  0  0  0  0  0
    0.8780    3.0270    3.1152 C   0  0  0  0  0  0  0  0  0  0  0  0
   -0.3686    2.1774    2.7564 C   0  0  1  0  0  0  0  0  0  0  0  0
   -1.4516    2.7197    3.6405 C   0  0  1  0  0  0  0  0  0  0  0  0
   -2.8101    2.0875    3.3850 C   0  0  1  0  0  0  0  0  0  0  0  0
   -2.7986    0.6279    3.6579 C   0  0  0  0  0  0  0  0  0  0  0  0
   -3.9474    2.8418    3.9072 C   0  0  0  0  0  0  0  0  0  0  0  0
   -4.6314    2.3790    4.8477 O   0  0  0  0  0  0  0  0  0  0  0  0
   -4.2932    4.0825    3.3680 N   0  0  0  0  0  0  0  0  0  0  0  0
   -5.3853    4.9293    3.7664 C   0  0  2  0  0  0  0  0  0  0  0  0
   -6.4898    4.9321    2.6943 C   0  0  0  0  0  0  0  0  0  0  0  0
   -5.0207    6.3757    3.9582 C   0  0  1  0  0  0  0  0  0  0  0  0
   -4.1571    6.6622    5.0892 C   0  0  0  0  0  0  0  0  0  0  0  0
   -3.9479    5.8451    6.1721 C   0  0  0  0  0  0  0  0  0  0  0  0
   -3.1048    6.1406    7.2186 C   0  0  0  0  0  0  0  0  0  0  0  0
   -2.4150    7.3330    7.1962 C   0  0  0  0  0  0  0  0  0  0  0  0
   -2.5913    8.2014    6.1182 C   0  0  0  0  0  0  0  0  0  0  0  0
   -3.4512    7.8659    5.0827 C   0  0  0  0  0  0  0  0  0  0  0  0
   -4.4688    6.9206    2.7978 O   0  0  0  0  0  0  0  0  0  0  0  0
   -1.1057    2.2549    4.9500 O   0  0  0  0  0  0  0  0  0  0  0  0
   -1.1114    3.2449    5.8895 C   0  0  0  0  0  0  0  0  0  0  0  0
   -2.2573   -0.6226    0.7672 O   0  0  0  0  0  0  0  0  0  0  0  0
   -2.0385   -1.9451    1.1807 C   0  0  0  0  0  0  0  0  0  0  0  0
   -3.6348    0.5166   -1.5215 N   0  0  0  0  0  0  0  0  0  0  0  0
   -4.8637   -0.1407   -0.8701 C   0  0  0  0  0  0  0  0  0  0  0  0
   -3.8889    1.8110   -1.9352 C   0  0  0  0  0  0  0  0  0  0  0  0
   -5.0994    2.2249   -1.4838 O   0  0  0  0  0  0  0  0  0  0  0  0
   -3.2687    2.8425   -2.6976 C   0  0  1  0  0  0  0  0  0  0  0  0
   -3.5206    4.2563   -2.1329 C   0  0  0  0  0  0  0  0  0  0  0  0
   -5.0361    4.5490   -2.1528 C   0  0  0  0  0  0  0  0  0  0  0  0
   -3.1304    4.4506   -0.7276 C   0  0  0  0  0  0  0  0  0  0  0  0
   -2.1270    2.6923   -3.4955 N   0  0  0  0  0  0  0  0  0  0  0  0
   -1.0641    3.6069   -3.7448 C   0  0  0  0  0  0  0  0  0  0  0  0
   -1.0112    4.7388   -3.1910 O   0  0  0  0  0  0  0  0  0  0  0  0
    0.0022    3.2499   -4.6603 C   0  0  1  0  0  0  0  0  0  0  0  0
   -0.4564    3.7969   -6.0457 C   0  0  0  0  0  0  0  0  0  0  0  0
    0.5851    3.4918   -7.1040 C   0  0  0  0  0  0  0  0  0  0  0  0
   -0.9059    5.1968   -6.0519 C   0  0  0  0  0  0  0  0  0  0  0  0
    1.3051    3.7950   -4.4204 N   0  0  0  0  0  0  0  0  0  0  0  0
    1.6352    5.0892   -3.9023 C   0  0  0  0  0  0  0  0  0  0  0  0
    2.4155    2.9074   -4.7196 C   0  0  0  0  0  0  0  0  0  0  0  0
    2.1132    1.7937   -5.2010 O   0  0  0  0  0  0  0  0  0  0  0  0
    3.7224    3.2499   -4.5044 O   0  0  0  0  0  0  0  0  0  0  0  0
    4.8606    2.5098   -4.8142 C   0  0  0  0  0  0  0  0  0  0  0  0
    4.9943    1.1549   -4.2825 C   0  0  0  0  0  0  0  0  0  0  0  0
    4.5727    0.1166   -5.1297 C   0  0  0  0  0  0  0  0  0  0  0  0
    4.6731   -1.2064   -4.7749 C   0  0  0  0  0  0  0  0  0  0  0  0
    5.2110   -1.5730   -3.5308 C   0  0  0  0  0  0  0  0  0  0  0  0
    5.6224   -0.5725   -2.6988 C   0  0  0  0  0  0  0  0  0  0  0  0
    5.5140    0.7802   -3.0736 C   0  0  0  0  0  0  0  0  0  0  0  0
    5.2782   -2.9616   -3.2904 N   0  0  0  0  0  0  0  0  0  0  0  0
    4.3315   -3.7581   -2.6506 C   0  0  0  0  0  0  0  0  0  0  0  0
    3.2816   -3.1854   -2.2016 O   0  0  0  0  0  0  0  0  0  0  0  0
    4.4771   -5.2355   -2.4698 C   0  0  1  0  0  0  0  0  0  0  0  0
    5.8015   -5.6764   -1.9566 C   0  0  0  0  0  0  0  0  0  0  0  0
    5.7384   -7.2043   -1.8584 C   0  0  0  0  0  0  0  0  0  0  0  0
    7.0135   -7.8087   -1.3585 C   0  0  0  0  0  0  0  0  0  0  0  0
    7.4010   -7.3878   -0.0517 N   0  0  0  0  0  0  0  0  0  0  0  0
    6.5434   -7.6300    1.0710 C   0  0  0  0  0  0  0  0  0  0  0  0
    5.4462   -8.1989    1.0019 O   0  0  0  0  0  0  0  0  0  0  0  0
    7.0062   -7.1740    2.3601 N   0  0  0  0  0  0  0  0  0  0  0  0
    3.3532   -5.7784   -1.7332 N   0  0  0  0  0  0  0  0  0  0  0  0
    2.2103   -6.3393   -2.3715 C   0  0  0  0  0  0  0  0  0  0  0  0
    2.1078   -6.3873   -3.6397 O   0  0  0  0  0  0  0  0  0  0  0  0
    1.1261   -6.8717   -1.4956 C   0  0  1  0  0  0  0  0  0  0  0  0
    0.7383   -8.2593   -1.9410 C   0  0  0  0  0  0  0  0  0  0  0  0
    0.2357   -8.2789   -3.3632 C   0  0  0  0  0  0  0  0  0  0  0  0
   -0.3616   -8.8041   -1.0673 C   0  0  0  0  0  0  0  0  0  0  0  0
    1.5131   -6.8701   -0.1209 N   0  0  0  0  0  0  0  0  0  0  0  0
    0.9574   -6.0751    0.9020 C   0  0  0  0  0  0  0  0  0  0  0  0
    0.0313   -5.2574    0.6626 O   0  0  0  0  0  0  0  0  0  0  0  0
    1.5220   -6.2530    2.2812 C   0  0  0  0  0  0  0  0  0  0  0  0
    0.8531   -5.3151    3.2415 C   0  0  0  0  0  0  0  0  0  0  0  0
    1.4455   -5.5572    4.6124 C   0  0  0  0  0  0  0  0  0  0  0  0
    0.8533   -4.6503    5.6405 C   0  0  0  0  0  0  0  0  0  0  0  0
    1.1056   -3.1756    5.3814 C   0  0  0  0  0  0  0  0  0  0  0  0
    2.5103   -2.8724    5.3919 N   0  0  0  0  0  0  0  0  0  0  0  0
    3.4889   -2.8491    4.3781 C   0  0  0  0  0  0  0  0  0  0  0  0
    3.2948   -3.1042    3.1659 O   0  0  0  0  0  0  0  0  0  0  0  0
    4.7851   -2.4758    4.9735 C   0  0  0  0  0  0  0  0  0  0  0  0
    4.6155   -2.2787    6.2929 C   0  0  0  0  0  0  0  0  0  0  0  0
    3.2099   -2.5146    6.5989 C   0  0  0  0  0  0  0  0  0  0  0  0
    2.7369   -2.4090    7.7547 O   0  0  0  0  0  0  0  0  0  0  0  0
   -3.1796   -2.0344   -5.7627 H   0  0  0  0  0  0  0  0  0  0  0  0
   -1.5529   -1.5261   -5.2924 H   0  0  0  0  0  0  0  0  0  0  0  0
   -2.7794   -0.3384   -6.0191 H   0  0  0  0  0  0  0  0  0  0  0  0
   -3.6956    0.0971   -3.9313 H   0  0  0  0  0  0  0  0  0  0  0  0
   -3.9407   -1.6309   -3.7125 H   0  0  0  0  0  0  0  0  0  0  0  0
   -1.2692   -0.2262   -3.2303 H   0  0  0  0  0  0  0  0  0  0  0  0
   -1.8928   -2.8004   -3.7451 H   0  0  0  0  0  0  0  0  0  0  0  0
   -0.3952   -2.2876   -3.0138 H   0  0  0  0  0  0  0  0  0  0  0  0
   -1.8050   -2.8585   -1.9789 H   0  0  0  0  0  0  0  0  0  0  0  0
   -3.0568   -1.4373   -1.1870 H   0  0  0  0  0  0  0  0  0  0  0  0
   -1.0693   -1.4685   -0.5497 H   0  0  0  0  0  0  0  0  0  0  0  0
    0.0556    0.0064    0.8014 H   0  0  0  0  0  0  0  0  0  0  0  0
    0.4635    0.3456   -0.8517 H   0  0  0  0  0  0  0  0  0  0  0  0
   -0.1545    4.4606    0.4657 H   0  0  0  0  0  0  0  0  0  0  0  0
   -1.5044    4.3979    1.6632 H   0  0  0  0  0  0  0  0  0  0  0  0
   -0.0181    5.0074    3.2552 H   0  0  0  0  0  0  0  0  0  0  0  0
    1.3870    4.8987    2.1134 H   0  0  0  0  0  0  0  0  0  0  0  0
    1.7542    2.6373    2.5501 H   0  0  0  0  0  0  0  0  0  0  0  0
    1.0371    3.1077    4.1768 H   0  0  0  0  0  0  0  0  0  0  0  0
   -0.1473    1.1420    2.9683 H   0  0  0  0  0  0  0  0  0  0  0  0
   -1.5823    3.7888    3.6712 H   0  0  0  0  0  0  0  0  0  0  0  0
   -2.9134    2.1710    2.2465 H   0  0  0  0  0  0  0  0  0  0  0  0
   -2.9245    0.3762    4.7345 H   0  0  0  0  0  0  0  0  0  0  0  0
   -3.5943    0.1514    3.0366 H   0  0  0  0  0  0  0  0  0  0  0  0
   -1.8414    0.1932    3.3388 H   0  0  0  0  0  0  0  0  0  0  0  0
   -3.6927    4.4478    2.5761 H   0  0  0  0  0  0  0  0  0  0  0  0
   -5.8838    4.5569    4.6762 H   0  0  0  0  0  0  0  0  0  0  0  0
   -7.4887    4.7539    3.1439 H   0  0  0  0  0  0  0  0  0  0  0  0
   -6.3319    4.1027    1.9740 H   0  0  0  0  0  0  0  0  0  0  0  0
   -6.5038    5.8800    2.1221 H   0  0  0  0  0  0  0  0  0  0  0  0
   -5.9970    6.9276    4.0967 H   0  0  0  0  0  0  0  0  0  0  0  0
   -4.4780    4.9063    6.2196 H   0  0  0  0  0  0  0  0  0  0  0  0
   -2.9465    5.4985    8.0599 H   0  0  0  0  0  0  0  0  0  0  0  0
   -1.7476    7.5675    8.0199 H   0  0  0  0  0  0  0  0  0  0  0  0
   -2.0699    9.1308    6.0736 H   0  0  0  0  0  0  0  0  0  0  0  0
   -3.5504    8.5767    4.2718 H   0  0  0  0  0  0  0  0  0  0  0  0
   -3.4794    6.8894    2.8609 H   0  0  0  0  0  0  0  0  0  0  0  0
   -2.1408    3.6790    5.9642 H   0  0  0  0  0  0  0  0  0  0  0  0
   -0.3437    4.0147    5.8083 H   0  0  0  0  0  0  0  0  0  0  0  0
   -0.9638    2.7430    6.8836 H   0  0  0  0  0  0  0  0  0  0  0  0
   -2.5982   -2.1368    2.1402 H   0  0  0  0  0  0  0  0  0  0  0  0
   -0.9735   -2.1492    1.4159 H   0  0  0  0  0  0  0  0  0  0  0  0
   -2.4369   -2.6881    0.4705 H   0  0  0  0  0  0  0  0  0  0  0  0
   -4.5359   -0.7206   -0.0102 H   0  0  0  0  0  0  0  0  0  0  0  0
   -5.2555   -0.8159   -1.6484 H   0  0  0  0  0  0  0  0  0  0  0  0
   -5.5983    0.5895   -0.6050 H   0  0  0  0  0  0  0  0  0  0  0  0
   -4.0579    2.9957   -3.5886 H   0  0  0  0  0  0  0  0  0  0  0  0
   -3.1560    4.9778   -2.8712 H   0  0  0  0  0  0  0  0  0  0  0  0
   -5.1940    5.6567   -2.3598 H   0  0  0  0  0  0  0  0  0  0  0  0
   -5.5855    3.9385   -2.8595 H   0  0  0  0  0  0  0  0  0  0  0  0
   -5.4544    4.4197   -1.1420 H   0  0  0  0  0  0  0  0  0  0  0  0
   -3.8364    5.1326   -0.1732 H   0  0  0  0  0  0  0  0  0  0  0  0
   -3.0210    3.5449   -0.1257 H   0  0  0  0  0  0  0  0  0  0  0  0
   -2.1432    4.9720   -0.7258 H   0  0  0  0  0  0  0  0  0  0  0  0
   -2.0242    1.7712   -4.0276 H   0  0  0  0  0  0  0  0  0  0  0  0
    0.1475    2.1743   -4.9076 H   0  0  0  0  0  0  0  0  0  0  0  0
   -1.3319    3.1546   -6.3156 H   0  0  0  0  0  0  0  0  0  0  0  0
    0.3192    4.0224   -8.0666 H   0  0  0  0  0  0  0  0  0  0  0  0
    0.5576    2.4293   -7.3524 H   0  0  0  0  0  0  0  0  0  0  0  0
    1.5682    3.9044   -6.8262 H   0  0  0  0  0  0  0  0  0  0  0  0
   -1.5407    5.5341   -5.2170 H   0  0  0  0  0  0  0  0  0  0  0  0
   -1.6072    5.2905   -6.9488 H   0  0  0  0  0  0  0  0  0  0  0  0
   -0.1036    5.9600   -6.1992 H   0  0  0  0  0  0  0  0  0  0  0  0
    1.8885    4.9879   -2.8098 H   0  0  0  0  0  0  0  0  0  0  0  0
    2.5283    5.5373   -4.4412 H   0  0  0  0  0  0  0  0  0  0  0  0
    0.8275    5.7949   -4.0722 H   0  0  0  0  0  0  0  0  0  0  0  0
    5.7998    3.0827   -4.5269 H   0  0  0  0  0  0  0  0  0  0  0  0
    4.9641    2.5044   -5.9567 H   0  0  0  0  0  0  0  0  0  0  0  0
    4.1605    0.3246   -6.1149 H   0  0  0  0  0  0  0  0  0  0  0  0
    4.3289   -1.9731   -5.4750 H   0  0  0  0  0  0  0  0  0  0  0  0
    6.0338   -0.8574   -1.7449 H   0  0  0  0  0  0  0  0  0  0  0  0
    5.8426    1.5715   -2.4132 H   0  0  0  0  0  0  0  0  0  0  0  0
    6.1554   -3.4453   -3.6462 H   0  0  0  0  0  0  0  0  0  0  0  0
    4.3957   -5.6144   -3.5458 H   0  0  0  0  0  0  0  0  0  0  0  0
    6.1057   -5.2250   -1.0130 H   0  0  0  0  0  0  0  0  0  0  0  0
    6.5711   -5.4290   -2.7137 H   0  0  0  0  0  0  0  0  0  0  0  0
    4.9237   -7.5074   -1.1533 H   0  0  0  0  0  0  0  0  0  0  0  0
    5.4292   -7.6242   -2.8368 H   0  0  0  0  0  0  0  0  0  0  0  0
    7.8194   -7.5363   -2.0893 H   0  0  0  0  0  0  0  0  0  0  0  0
    6.9838   -8.9192   -1.3588 H   0  0  0  0  0  0  0  0  0  0  0  0
    8.3189   -6.8934    0.1186 H   0  0  0  0  0  0  0  0  0  0  0  0
    8.0085   -6.9410    2.5300 H   0  0  0  0  0  0  0  0  0  0  0  0
    6.3554   -7.0625    3.1665 H   0  0  0  0  0  0  0  0  0  0  0  0
    3.4077   -5.7439   -0.6942 H   0  0  0  0  0  0  0  0  0  0  0  0
    0.2338   -6.1910   -1.6573 H   0  0  0  0  0  0  0  0  0  0  0  0
    1.6472   -8.9097   -1.9240 H   0  0  0  0  0  0  0  0  0  0  0  0
   -0.6736   -8.9180   -3.4702 H   0  0  0  0  0  0  0  0  0  0  0  0
   -0.1103   -7.2630   -3.6902 H   0  0  0  0  0  0  0  0  0  0  0  0
    0.9753   -8.6515   -4.0933 H   0  0  0  0  0  0  0  0  0  0  0  0
   -1.0462   -7.9727   -0.7704 H   0  0  0  0  0  0  0  0  0  0  0  0
    0.0495   -9.3453   -0.1820 H   0  0  0  0  0  0  0  0  0  0  0  0
   -1.0128   -9.5302   -1.6236 H   0  0  0  0  0  0  0  0  0  0  0  0
    2.2995   -7.5376    0.1418 H   0  0  0  0  0  0  0  0  0  0  0  0
    1.4448   -7.3062    2.6186 H   0  0  0  0  0  0  0  0  0  0  0  0
    2.6165   -6.0365    2.1981 H   0  0  0  0  0  0  0  0  0  0  0  0
    0.8580   -4.2734    2.9199 H   0  0  0  0  0  0  0  0  0  0  0  0
   -0.2375   -5.6181    3.2543 H   0  0  0  0  0  0  0  0  0  0  0  0
    2.5297   -5.4382    4.5892 H   0  0  0  0  0  0  0  0  0  0  0  0
    1.1715   -6.5932    4.8919 H   0  0  0  0  0  0  0  0  0  0  0  0
   -0.2210   -4.7632    5.7924 H   0  0  0  0  0  0  0  0  0  0  0  0
    1.3864   -4.8696    6.6018 H   0  0  0  0  0  0  0  0  0  0  0  0
    0.6041   -2.5844    6.1461 H   0  0  0  0  0  0  0  0  0  0  0  0
    0.6842   -2.8775    4.3964 H   0  0  0  0  0  0  0  0  0  0  0  0
    5.7116   -2.3826    4.4198 H   0  0  0  0  0  0  0  0  0  0  0  0
    5.3925   -1.9955    6.9897 H   0  0  0  0  0  0  0  0  0  0  0  0
  1  2  1  0
  2  3  1  0
  3  4  1  0
  3  5  1  0
  5  6  1  0
  6  7  1  0
  7  8  1  0
  8  9  2  0
  8 10  1  0
 10 11  1  0
 11 12  1  0
 12 13  1  0
 13 14  1  0
 14 15  1  0
 15 16  1  0
 16 17  1  0
 16 18  1  0
 18 19  2  0
 18 20  1  0
 20 21  1  0
 21 22  1  0
 21 23  1  0
 23 24  1  0
 24 25  2  0
 25 26  1  0
 26 27  2  0
 27 28  1  0
 28 29  2  0
 23 30  1  0
 15 31  1  0
 31 32  1  0
  6 33  1  0
 33 34  1  0
  5 35  1  0
 35 36  1  0
 35 37  1  0
 37 38  2  0
 37 39  1  0
 39 40  1  0
 40 41  1  0
 40 42  1  0
 39 43  1  0
 43 44  1  0
 44 45  2  0
 44 46  1  0
 46 47  1  0
 47 48  1  0
 47 49  1  0
 46 50  1  0
 50 51  1  0
 50 52  1  0
 52 53  2  0
 52 54  1  0
 54 55  1  0
 55 56  1  0
 56 57  1  0
 57 58  2  0
 58 59  1  0
 59 60  2  0
 60 61  1  0
 59 62  1  0
 62 63  1  0
 63 64  2  0
 63 65  1  0
 65 66  1  0
 66 67  1  0
 67 68  1  0
 68 69  1  0
 69 70  1  0
 70 71  2  0
 70 72  1  0
 65 73  1  0
 73 74  1  0
 74 75  2  0
 74 76  1  0
 76 77  1  0
 77 78  1  0
 77 79  1  0
 76 80  1  0
 80 81  1  0
 81 82  2  0
 81 83  1  0
 83 84  1  0
 84 85  1  0
 85 86  1  0
 86 87  1  0
 87 88  1  0
 88 89  1  0
 89 90  2  0
 89 91  1  0
 91 92  2  0
 92 93  1  0
 93 94  2  0
 14 10  1  0
 29 24  1  0
 61 56  2  0
 93 88  1  0
  1 95  1  0
  1 96  1  0
  1 97  1  0
  2 98  1  0
  2 99  1  0
  3100  1  6
  4101  1  0
  4102  1  0
  4103  1  0
  5104  1  1
  6105  1  6
  7106  1  0
  7107  1  0
 11108  1  0
 11109  1  0
 12110  1  0
 12111  1  0
 13112  1  0
 13113  1  0
 14114  1  6
 15115  1  1
 16116  1  6
 17117  1  0
 17118  1  0
 17119  1  0
 20120  1  0
 21121  1  1
 22122  1  0
 22123  1  0
 22124  1  0
 23125  1  1
 25126  1  0
 26127  1  0
 27128  1  0
 28129  1  0
 29130  1  0
 30131  1  0
 32132  1  0
 32133  1  0
 32134  1  0
 34135  1  0
 34136  1  0
 34137  1  0
 36138  1  0
 36139  1  0
 36140  1  0
 39141  1  6
 40142  1  0
 41143  1  0
 41144  1  0
 41145  1  0
 42146  1  0
 42147  1  0
 42148  1  0
 43149  1  0
 46150  1  6
 47151  1  0
 48152  1  0
 48153  1  0
 48154  1  0
 49155  1  0
 49156  1  0
 49157  1  0
 51158  1  0
 51159  1  0
 51160  1  0
 55161  1  0
 55162  1  0
 57163  1  0
 58164  1  0
 60165  1  0
 61166  1  0
 62167  1  0
 65168  1  6
 66169  1  0
 66170  1  0
 67171  1  0
 67172  1  0
 68173  1  0
 68174  1  0
 69175  1  0
 72176  1  0
 72177  1  0
 73178  1  0
 76179  1  1
 77180  1  0
 78181  1  0
 78182  1  0
 78183  1  0
 79184  1  0
 79185  1  0
 79186  1  0
 80187  1  0
 83188  1  0
 83189  1  0
 84190  1  0
 84191  1  0
 85192  1  0
 85193  1  0
 86194  1  0
 86195  1  0
 87196  1  0
 87197  1  0
 91198  1  0
 92199  1  0
M  END
$$$$

     RDKit          3D

199202  0  0  0  0  0  0  0  0999 V2000
    2.0086   -0.4295   -5.2462 C   0  0  0  0  0  0  0  0  0  0  0  0
    2.0634    0.5769   -4.0698 C   0  0  0  0  0  0  0  0  0  0  0  0
    1.9058   -0.2206   -2.8467 C   0  0  2  0  0  0  0  0  0  0  0  0
    0.5636   -0.9624   -2.8132 C   0  0  0  0  0  0  0  0  0  0  0  0
    2.2224    0.4182   -1.5065 C   0  0  1  0  0  0  0  0  0  0  0  0
    3.6201    0.8198   -1.4481 C   0  0  1  0  0  0  0  0  0  0  0  0
    4.1500    1.2281   -0.1017 C   0  0  0  0  0  0  0  0  0  0  0  0
    4.0958    0.1902    0.9485 C   0  0  0  0  0  0  0  0  0  0  0  0
    3.5812   -0.9462    0.8156 O   0  0  0  0  0  0  0  0  0  0  0  0
    4.6711    0.4981    2.2013 N   0  0  0  0  0  0  0  0  0  0  0  0
    5.3389    1.7411    2.6325 C   0  0  0  0  0  0  0  0  0  0  0  0
    6.3699    1.3848    3.6335 C   0  0  0  0  0  0  0  0  0  0  0  0
    6.2291   -0.1149    3.7850 C   0  0  0  0  0  0  0  0  0  0  0  0
    4.7841   -0.3316    3.4172 C   0  0  1  0  0  0  0  0  0  0  0  0
    3.9206    0.2930    4.5235 C   0  0  1  0  0  0  0  0  0  0  0  0
    2.5002    0.4684    4.0210 C   0  0  1  0  0  0  0  0  0  0  0  0
    1.8340   -0.8154    3.6282 C   0  0  0  0  0  0  0  0  0  0  0  0
    1.6794    1.1613    5.0246 C   0  0  0  0  0  0  0  0  0  0  0  0
    1.1515    2.2930    4.7193 O   0  0  0  0  0  0  0  0  0  0  0  0
    1.4023    0.6973    6.3250 N   0  0  0  0  0  0  0  0  0  0  0  0
    0.5618    1.5173    7.2003 C   0  0  2  0  0  0  0  0  0  0  0  0
    1.4789    2.2339    8.2212 C   0  0  0  0  0  0  0  0  0  0  0  0
   -0.2879    0.6075    8.0391 C   0  0  1  0  0  0  0  0  0  0  0  0
   -1.2347   -0.2384    7.3076 C   0  0  0  0  0  0  0  0  0  0  0  0
   -2.5617    0.1628    7.1996 C   0  0  0  0  0  0  0  0  0  0  0  0
   -3.5217   -0.5649    6.5523 C   0  0  0  0  0  0  0  0  0  0  0  0
   -3.1431   -1.7700    5.9706 C   0  0  0  0  0  0  0  0  0  0  0  0
   -1.8434   -2.2237    6.0409 C   0  0  0  0  0  0  0  0  0  0  0  0
   -0.9207   -1.4417    6.7116 C   0  0  0  0  0  0  0  0  0  0  0  0
    0.5263   -0.2289    8.8394 O   0  0  0  0  0  0  0  0  0  0  0  0
    3.9929   -0.3716    5.7068 O   0  0  0  0  0  0  0  0  0  0  0  0
    4.5373    0.2955    6.7830 C   0  0  0  0  0  0  0  0  0  0  0  0
    4.4126   -0.3062   -1.7871 O   0  0  0  0  0  0  0  0  0  0  0  0
    5.3635   -0.0939   -2.7347 C   0  0  0  0  0  0  0  0  0  0  0  0
    1.2225    1.3995   -1.1472 N   0  0  0  0  0  0  0  0  0  0  0  0
    0.2287    0.9652   -0.1495 C   0  0  0  0  0  0  0  0  0  0  0  0
    1.1045    2.6920   -1.7009 C   0  0  0  0  0  0  0  0  0  0  0  0
    1.9064    3.1237   -2.6047 O   0  0  0  0  0  0  0  0  0  0  0  0
    0.0546    3.6807   -1.3154 C   0  0  1  0  0  0  0  0  0  0  0  0
    0.4411    4.5542   -0.1479 C   0  0  0  0  0  0  0  0  0  0  0  0
    0.7404    3.8480    1.1324 C   0  0  0  0  0  0  0  0  0  0  0  0
   -0.8114    5.4069    0.1334 C   0  0  0  0  0  0  0  0  0  0  0  0
   -0.0100    4.6940   -2.4220 N   0  0  0  0  0  0  0  0  0  0  0  0
   -1.2210    4.8858   -3.0925 C   0  0  0  0  0  0  0  0  0  0  0  0
   -2.1999    4.1430   -2.6720 O   0  0  0  0  0  0  0  0  0  0  0  0
   -1.5465    5.7887   -4.1864 C   0  0  1  0  0  0  0  0  0  0  0  0
   -0.5743    6.0478   -5.2631 C   0  0  0  0  0  0  0  0  0  0  0  0
    0.7383    6.6880   -4.7710 C   0  0  0  0  0  0  0  0  0  0  0  0
   -0.2894    4.9815   -6.2623 C   0  0  0  0  0  0  0  0  0  0  0  0
   -2.8590    5.4429   -4.7090 N   0  0  0  0  0  0  0  0  0  0  0  0
   -3.9633    6.3876   -4.7758 C   0  0  0  0  0  0  0  0  0  0  0  0
   -3.1408    4.1272   -5.2041 C   0  0  0  0  0  0  0  0  0  0  0  0
   -2.2184    3.2933   -5.1226 O   0  0  0  0  0  0  0  0  0  0  0  0
   -4.3293    3.7337   -5.7470 O   0  0  0  0  0  0  0  0  0  0  0  0
   -4.6142    2.4149   -6.2290 C   0  0  0  0  0  0  0  0  0  0  0  0
   -4.4695    1.4114   -5.1414 C   0  0  0  0  0  0  0  0  0  0  0  0
   -3.3016    0.7011   -4.9285 C   0  0  0  0  0  0  0  0  0  0  0  0
   -3.2725   -0.1587   -3.8573 C   0  0  0  0  0  0  0  0  0  0  0  0
   -4.3529   -0.3422   -2.9949 C   0  0  0  0  0  0  0  0  0  0  0  0
   -5.5056    0.3560   -3.2087 C   0  0  0  0  0  0  0  0  0  0  0  0
   -5.5386    1.2324   -4.2952 C   0  0  0  0  0  0  0  0  0  0  0  0
   -4.1431   -1.2352   -1.8835 N   0  0  0  0  0  0  0  0  0  0  0  0
   -3.9327   -0.5628   -0.6237 C   0  0  0  0  0  0  0  0  0  0  0  0
   -3.9883    0.7167   -0.7286 O   0  0  0  0  0  0  0  0  0  0  0  0
   -3.6943   -1.2920    0.5982 C   0  0  1  0  0  0  0  0  0  0  0  0
   -4.9238   -1.2769    1.5171 C   0  0  0  0  0  0  0  0  0  0  0  0
   -5.2063    0.1543    1.8773 C   0  0  0  0  0  0  0  0  0  0  0  0
   -6.3794    0.2680    2.8440 C   0  0  0  0  0  0  0  0  0  0  0  0
   -6.5026    1.6914    3.1278 N   0  0  0  0  0  0  0  0  0  0  0  0
   -7.5089    2.1891    4.0256 C   0  0  0  0  0  0  0  0  0  0  0  0
   -8.3128    1.3938    4.5887 O   0  0  0  0  0  0  0  0  0  0  0  0
   -7.6240    3.5779    4.3008 N   0  0  0  0  0  0  0  0  0  0  0  0
   -3.2241   -2.6642    0.4493 N   0  0  0  0  0  0  0  0  0  0  0  0
   -2.5478   -3.2025    1.5856 C   0  0  0  0  0  0  0  0  0  0  0  0
   -2.4705   -2.4421    2.5883 O   0  0  0  0  0  0  0  0  0  0  0  0
   -1.9519   -4.5334    1.6819 C   0  0  1  0  0  0  0  0  0  0  0  0
   -2.8450   -5.5379    2.4021 C   0  0  0  0  0  0  0  0  0  0  0  0
   -4.1499   -5.6849    1.6712 C   0  0  0  0  0  0  0  0  0  0  0  0
   -2.9593   -5.1944    3.8460 C   0  0  0  0  0  0  0  0  0  0  0  0
   -1.7036   -5.1301    0.3750 N   0  0  0  0  0  0  0  0  0  0  0  0
   -0.3331   -5.3905    0.0756 C   0  0  0  0  0  0  0  0  0  0  0  0
    0.5982   -5.1121    0.9140 O   0  0  0  0  0  0  0  0  0  0  0  0
    0.1366   -5.9916   -1.1997 C   0  0  0  0  0  0  0  0  0  0  0  0
    1.6537   -6.0685   -1.1037 C   0  0  0  0  0  0  0  0  0  0  0  0
    2.1941   -6.6497   -2.3812 C   0  0  0  0  0  0  0  0  0  0  0  0
    3.7101   -6.7218   -2.2826 C   0  0  0  0  0  0  0  0  0  0  0  0
    4.2317   -7.2806   -3.5865 C   0  0  0  0  0  0  0  0  0  0  0  0
    3.7329   -8.5869   -3.9087 N   0  0  0  0  0  0  0  0  0  0  0  0
    2.5728   -8.8396   -4.6622 C   0  0  0  0  0  0  0  0  0  0  0  0
    1.7493   -8.0358   -5.2072 O   0  0  0  0  0  0  0  0  0  0  0  0
    2.4049  -10.3030   -4.7602 C   0  0  0  0  0  0  0  0  0  0  0  0
    3.3904  -10.8953   -4.1140 C   0  0  0  0  0  0  0  0  0  0  0  0
    4.2758   -9.8726   -3.5455 C   0  0  0  0  0  0  0  0  0  0  0  0
    5.3313  -10.0469   -2.8577 O   0  0  0  0  0  0  0  0  0  0  0  0
    2.5304    0.0197   -6.1071 H   0  0  0  0  0  0  0  0  0  0  0  0
    0.9646   -0.6161   -5.5268 H   0  0  0  0  0  0  0  0  0  0  0  0
    2.5592   -1.3409   -4.9707 H   0  0  0  0  0  0  0  0  0  0  0  0
    1.1791    1.2332   -4.2959 H   0  0  0  0  0  0  0  0  0  0  0  0
    2.9384    1.1900   -4.1668 H   0  0  0  0  0  0  0  0  0  0  0  0
    2.6482   -1.0930   -2.9669 H   0  0  0  0  0  0  0  0  0  0  0  0
   -0.2357   -0.2007   -2.7338 H   0  0  0  0  0  0  0  0  0  0  0  0
    0.4030   -1.5128   -3.7633 H   0  0  0  0  0  0  0  0  0  0  0  0
    0.5225   -1.7106   -2.0150 H   0  0  0  0  0  0  0  0  0  0  0  0
    2.0756   -0.4762   -0.8100 H   0  0  0  0  0  0  0  0  0  0  0  0
    3.9630    1.6174   -2.1448 H   0  0  0  0  0  0  0  0  0  0  0  0
    3.6712    2.1652    0.1886 H   0  0  0  0  0  0  0  0  0  0  0  0
    5.2401    1.4887   -0.2304 H   0  0  0  0  0  0  0  0  0  0  0  0
    4.5973    2.4877    2.9672 H   0  0  0  0  0  0  0  0  0  0  0  0
    5.8207    2.1486    1.7263 H   0  0  0  0  0  0  0  0  0  0  0  0
    7.3828    1.6456    3.2439 H   0  0  0  0  0  0  0  0  0  0  0  0
    6.2764    1.9140    4.5965 H   0  0  0  0  0  0  0  0  0  0  0  0
    6.8854   -0.5889    3.0086 H   0  0  0  0  0  0  0  0  0  0  0  0
    6.5169   -0.3851    4.7919 H   0  0  0  0  0  0  0  0  0  0  0  0
    4.4991   -1.3358    3.1453 H   0  0  0  0  0  0  0  0  0  0  0  0
    4.3244    1.3102    4.6631 H   0  0  0  0  0  0  0  0  0  0  0  0
    2.5515    1.1141    3.1117 H   0  0  0  0  0  0  0  0  0  0  0  0
    1.0498   -1.1337    4.3777 H   0  0  0  0  0  0  0  0  0  0  0  0
    1.2437   -0.6325    2.7081 H   0  0  0  0  0  0  0  0  0  0  0  0
    2.5131   -1.6444    3.3810 H   0  0  0  0  0  0  0  0  0  0  0  0
    1.7956   -0.2176    6.6157 H   0  0  0  0  0  0  0  0  0  0  0  0
    0.0156    2.2821    6.6398 H   0  0  0  0  0  0  0  0  0  0  0  0
    0.7772    2.7865    8.8892 H   0  0  0  0  0  0  0  0  0  0  0  0
    2.1306    2.9633    7.7432 H   0  0  0  0  0  0  0  0  0  0  0  0
    1.9992    1.4108    8.7326 H   0  0  0  0  0  0  0  0  0  0  0  0
   -0.8845    1.1798    8.7984 H   0  0  0  0  0  0  0  0  0  0  0  0
   -2.8431    1.0958    7.6513 H   0  0  0  0  0  0  0  0  0  0  0  0
   -4.5508   -0.2335    6.4838 H   0  0  0  0  0  0  0  0  0  0  0  0
   -3.9036   -2.3496    5.4547 H   0  0  0  0  0  0  0  0  0  0  0  0
   -1.5354   -3.1417    5.5977 H   0  0  0  0  0  0  0  0  0  0  0  0
    0.0832   -1.8225    6.7562 H   0  0  0  0  0  0  0  0  0  0  0  0
    0.9945   -0.9115    8.3386 H   0  0  0  0  0  0  0  0  0  0  0  0
    4.0312    1.2216    7.0802 H   0  0  0  0  0  0  0  0  0  0  0  0
    4.3985   -0.3928    7.6809 H   0  0  0  0  0  0  0  0  0  0  0  0
    5.6291    0.4381    6.7696 H   0  0  0  0  0  0  0  0  0  0  0  0
    5.9798   -1.0178   -2.9465 H   0  0  0  0  0  0  0  0  0  0  0  0
    6.0743    0.7403   -2.5019 H   0  0  0  0  0  0  0  0  0  0  0  0
    4.9036    0.1320   -3.7102 H   0  0  0  0  0  0  0  0  0  0  0  0
   -0.6644    1.5641   -0.1111 H   0  0  0  0  0  0  0  0  0  0  0  0
    0.6999    0.9738    0.8532 H   0  0  0  0  0  0  0  0  0  0  0  0
   -0.0506   -0.0993   -0.3241 H   0  0  0  0  0  0  0  0  0  0  0  0
   -0.9287    3.2809   -1.1538 H   0  0  0  0  0  0  0  0  0  0  0  0
    1.2648    5.2606   -0.4463 H   0  0  0  0  0  0  0  0  0  0  0  0
   -0.1449    3.2914    1.4539 H   0  0  0  0  0  0  0  0  0  0  0  0
    1.6165    3.1870    0.9678 H   0  0  0  0  0  0  0  0  0  0  0  0
    1.0137    4.6524    1.8702 H   0  0  0  0  0  0  0  0  0  0  0  0
   -1.6411    4.6844    0.2382 H   0  0  0  0  0  0  0  0  0  0  0  0
   -0.7013    5.9963    1.0518 H   0  0  0  0  0  0  0  0  0  0  0  0
   -1.0190    6.0738   -0.7228 H   0  0  0  0  0  0  0  0  0  0  0  0
    0.8239    5.2365   -2.6825 H   0  0  0  0  0  0  0  0  0  0  0  0
   -1.7440    6.8679   -3.7749 H   0  0  0  0  0  0  0  0  0  0  0  0
   -1.0323    6.8976   -5.8801 H   0  0  0  0  0  0  0  0  0  0  0  0
    1.0686    7.4842   -5.5178 H   0  0  0  0  0  0  0  0  0  0  0  0
    1.5725    5.9749   -4.7765 H   0  0  0  0  0  0  0  0  0  0  0  0
    0.5960    7.2555   -3.8402 H   0  0  0  0  0  0  0  0  0  0  0  0
   -1.1332    4.8610   -6.9420 H   0  0  0  0  0  0  0  0  0  0  0  0
    0.5198    5.4439   -6.9406 H   0  0  0  0  0  0  0  0  0  0  0  0
    0.1854    4.0665   -5.8882 H   0  0  0  0  0  0  0  0  0  0  0  0
   -3.7076    7.3469   -4.2940 H   0  0  0  0  0  0  0  0  0  0  0  0
   -4.2340    6.5542   -5.8453 H   0  0  0  0  0  0  0  0  0  0  0  0
   -4.8543    5.9095   -4.2912 H   0  0  0  0  0  0  0  0  0  0  0  0
   -3.8409    2.2016   -6.9924 H   0  0  0  0  0  0  0  0  0  0  0  0
   -5.5958    2.3864   -6.7313 H   0  0  0  0  0  0  0  0  0  0  0  0
   -2.4386    0.7550   -5.5477 H   0  0  0  0  0  0  0  0  0  0  0  0
   -2.3637   -0.7277   -3.6747 H   0  0  0  0  0  0  0  0  0  0  0  0
   -6.3420    0.2198   -2.5476 H   0  0  0  0  0  0  0  0  0  0  0  0
   -6.4689    1.7995   -4.4713 H   0  0  0  0  0  0  0  0  0  0  0  0
   -4.1423   -2.2616   -1.9804 H   0  0  0  0  0  0  0  0  0  0  0  0
   -2.9274   -0.7925    1.2609 H   0  0  0  0  0  0  0  0  0  0  0  0
   -4.7633   -1.8355    2.4457 H   0  0  0  0  0  0  0  0  0  0  0  0
   -5.7658   -1.6564    0.8998 H   0  0  0  0  0  0  0  0  0  0  0  0
   -5.4370    0.7667    0.9582 H   0  0  0  0  0  0  0  0  0  0  0  0
   -4.3029    0.6116    2.3246 H   0  0  0  0  0  0  0  0  0  0  0  0
   -7.2829   -0.1756    2.4250 H   0  0  0  0  0  0  0  0  0  0  0  0
   -6.1024   -0.2133    3.8011 H   0  0  0  0  0  0  0  0  0  0  0  0
   -5.8904    2.4181    2.7098 H   0  0  0  0  0  0  0  0  0  0  0  0
   -8.5695    3.9778    4.4058 H   0  0  0  0  0  0  0  0  0  0  0  0
   -6.7655    4.1877    4.3963 H   0  0  0  0  0  0  0  0  0  0  0  0
   -3.3516   -3.2426   -0.4007 H   0  0  0  0  0  0  0  0  0  0  0  0
   -1.0043   -4.4583    2.2354 H   0  0  0  0  0  0  0  0  0  0  0  0
   -2.3216   -6.5165    2.3198 H   0  0  0  0  0  0  0  0  0  0  0  0
   -3.9253   -6.2801    0.7369 H   0  0  0  0  0  0  0  0  0  0  0  0
   -4.6479   -4.7247    1.4526 H   0  0  0  0  0  0  0  0  0  0  0  0
   -4.8241   -6.3416    2.2562 H   0  0  0  0  0  0  0  0  0  0  0  0
   -3.0962   -4.1274    4.0018 H   0  0  0  0  0  0  0  0  0  0  0  0
   -3.7472   -5.7920    4.3518 H   0  0  0  0  0  0  0  0  0  0  0  0
   -1.9938   -5.5190    4.3224 H   0  0  0  0  0  0  0  0  0  0  0  0
   -2.4343   -5.3644   -0.3203 H   0  0  0  0  0  0  0  0  0  0  0  0
   -0.2986   -7.0228   -1.3309 H   0  0  0  0  0  0  0  0  0  0  0  0
   -0.1160   -5.4214   -2.0972 H   0  0  0  0  0  0  0  0  0  0  0  0
    1.9533   -6.6423   -0.2258 H   0  0  0  0  0  0  0  0  0  0  0  0
    2.0346   -5.0313   -0.9984 H   0  0  0  0  0  0  0  0  0  0  0  0
    1.7776   -7.6944   -2.5048 H   0  0  0  0  0  0  0  0  0  0  0  0
    1.9157   -6.0597   -3.2587 H   0  0  0  0  0  0  0  0  0  0  0  0
    4.1353   -5.7127   -2.1180 H   0  0  0  0  0  0  0  0  0  0  0  0
    3.9314   -7.3886   -1.4266 H   0  0  0  0  0  0  0  0  0  0  0  0
    3.9771   -6.5790   -4.4086 H   0  0  0  0  0  0  0  0  0  0  0  0
    5.3477   -7.2771   -3.5460 H   0  0  0  0  0  0  0  0  0  0  0  0
    1.5738  -10.7865   -5.3018 H   0  0  0  0  0  0  0  0  0  0  0  0
    3.4886  -11.9732   -4.0420 H   0  0  0  0  0  0  0  0  0  0  0  0
  1  2  1  0
  2  3  1  0
  3  4  1  0
  3  5  1  0
  5  6  1  0
  6  7  1  0
  7  8  1  0
  8  9  2  0
  8 10  1  0
 10 11  1  0
 11 12  1  0
 12 13  1  0
 13 14  1  0
 14 15  1  0
 15 16  1  0
 16 17  1  0
 16 18  1  0
 18 19  2  0
 18 20  1  0
 20 21  1  0
 21 22  1  0
 21 23  1  0
 23 24  1  0
 24 25  2  0
 25 26  1  0
 26 27  2  0
 27 28  1  0
 28 29  2  0
 23 30  1  0
 15 31  1  0
 31 32  1  0
  6 33  1  0
 33 34  1  0
  5 35  1  0
 35 36  1  0
 35 37  1  0
 37 38  2  0
 37 39  1  0
 39 40  1  0
 40 41  1  0
 40 42  1  0
 39 43  1  0
 43 44  1  0
 44 45  2  0
 44 46  1  0
 46 47  1  0
 47 48  1  0
 47 49  1  0
 46 50  1  0
 50 51  1  0
 50 52  1  0
 52 53  2  0
 52 54  1  0
 54 55  1  0
 55 56  1  0
 56 57  1  0
 57 58  2  0
 58 59  1  0
 59 60  2  0
 60 61  1  0
 59 62  1  0
 62 63  1  0
 63 64  2  0
 63 65  1  0
 65 66  1  0
 66 67  1  0
 67 68  1  0
 68 69  1  0
 69 70  1  0
 70 71  2  0
 70 72  1  0
 65 73  1  0
 73 74  1  0
 74 75  2  0
 74 76  1  0
 76 77  1  0
 77 78  1  0
 77 79  1  0
 76 80  1  0
 80 81  1  0
 81 82  2  0
 81 83  1  0
 83 84  1  0
 84 85  1  0
 85 86  1  0
 86 87  1  0
 87 88  1  0
 88 89  1  0
 89 90  2  0
 89 91  1  0
 91 92  2  0
 92 93  1  0
 93 94  2  0
 14 10  1  0
 29 24  1  0
 61 56  2  0
 93 88  1  0
  1 95  1  0
  1 96  1  0
  1 97  1  0
  2 98  1  0
  2 99  1  0
  3100  1  6
  4101  1  0
  4102  1  0
  4103  1  0
  5104  1  1
  6105  1  6
  7106  1  0
  7107  1  0
 11108  1  0
 11109  1  0
 12110  1  0
 12111  1  0
 13112  1  0
 13113  1  0
 14114  1  6
 15115  1  1
 16116  1  6
 17117  1  0
 17118  1  0
 17119  1  0
 20120  1  0
 21121  1  6
 22122  1  0
 22123  1  0
 22124  1  0
 23125  1  1
 25126  1  0
 26127  1  0
 27128  1  0
 28129  1  0
 29130  1  0
 30131  1  0
 32132  1  0
 32133  1  0
 32134  1  0
 34135  1  0
 34136  1  0
 34137  1  0
 36138  1  0
 36139  1  0
 36140  1  0
 39141  1  1
 40142  1  0
 41143  1  0
 41144  1  0
 41145  1  0
 42146  1  0
 42147  1  0
 42148  1  0
 43149  1  0
 46150  1  1
 47151  1  0
 48152  1  0
 48153  1  0
 48154  1  0
 49155  1  0
 49156  1  0
 49157  1  0
 51158  1  0
 51159  1  0
 51160  1  0
 55161  1  0
 55162  1  0
 57163  1  0
 58164  1  0
 60165  1  0
 61166  1  0
 62167  1  0
 65168  1  1
 66169  1  0
 66170  1  0
 67171  1  0
 67172  1  0
 68173  1  0
 68174  1  0
 69175  1  0
 72176  1  0
 72177  1  0
 73178  1  0
 76179  1  1
 77180  1  0
 78181  1  0
 78182  1  0
 78183  1  0
 79184  1  0
 79185  1  0
 79186  1  0
 80187  1  0
 83188  1  0
 83189  1  0
 84190  1  0
 84191  1  0
 85192  1  0
 85193  1  0
 86194  1  0
 86195  1  0
 87196  1  0
 87197  1  0
 91198  1  0
 92199  1  0
M  END
$$$$

     RDKit          3D

199202  0  0  0  0  0  0  0  0999 V2000
   -4.8353   -9.3401   -0.1399 C   0  0  0  0  0  0  0  0  0  0  0  0
   -4.7511   -8.2950   -1.3237 C   0  0  0  0  0  0  0  0  0  0  0  0
   -4.0335   -7.1012   -0.8193 C   0  0  2  0  0  0  0  0  0  0  0  0
   -4.7678   -6.4782    0.3095 C   0  0  0  0  0  0  0  0  0  0  0  0
   -3.4167   -6.1237   -1.8446 C   0  0  1  0  0  0  0  0  0  0  0  0
   -4.3538   -5.4644   -2.6433 C   0  0  1  0  0  0  0  0  0  0  0  0
   -4.1831   -4.3900   -3.6170 C   0  0  0  0  0  0  0  0  0  0  0  0
   -3.7347   -3.0361   -3.2711 C   0  0  0  0  0  0  0  0  0  0  0  0
   -2.7060   -2.6504   -2.7513 O   0  0  0  0  0  0  0  0  0  0  0  0
   -4.6628   -1.9539   -3.6178 N   0  0  0  0  0  0  0  0  0  0  0  0
   -6.0850   -2.2025   -4.0552 C   0  0  0  0  0  0  0  0  0  0  0  0
   -5.8262   -1.8046   -5.5028 C   0  0  0  0  0  0  0  0  0  0  0  0
   -5.3050   -0.3961   -5.2472 C   0  0  0  0  0  0  0  0  0  0  0  0
   -4.5610   -0.5784   -3.8681 C   0  0  1  0  0  0  0  0  0  0  0  0
   -5.0922    0.5503   -3.0613 C   0  0  1  0  0  0  0  0  0  0  0  0
   -4.5629    0.8509   -1.7146 C   0  0  1  0  0  0  0  0  0  0  0  0
   -5.3398    2.0846   -1.1951 C   0  0  0  0  0  0  0  0  0  0  0  0
   -4.4588   -0.0419   -0.6054 C   0  0  0  0  0  0  0  0  0  0  0  0
   -4.6169   -1.2970   -0.7196 O   0  0  0  0  0  0  0  0  0  0  0  0
   -4.1529    0.5473    0.6831 N   0  0  0  0  0  0  0  0  0  0  0  0
   -3.9793   -0.1736    1.9010 C   0  0  2  0  0  0  0  0  0  0  0  0
   -5.3880   -0.3444    2.5735 C   0  0  0  0  0  0  0  0  0  0  0  0
   -3.1948    0.5574    2.9391 C   0  0  1  0  0  0  0  0  0  0  0  0
   -1.8436    1.0001    2.4861 C   0  0  0  0  0  0  0  0  0  0  0  0
   -1.7304    2.3185    2.0268 C   0  0  0  0  0  0  0  0  0  0  0  0
   -0.5365    2.8389    1.5704 C   0  0  0  0  0  0  0  0  0  0  0  0
    0.5988    1.9957    1.5673 C   0  0  0  0  0  0  0  0  0  0  0  0
    0.5257    0.6767    2.0160 C   0  0  0  0  0  0  0  0  0  0  0  0
   -0.7186    0.2622    2.4570 C   0  0  0  0  0  0  0  0  0  0  0  0
   -3.9078    1.6835    3.3940 O   0  0  0  0  0  0  0  0  0  0  0  0
   -4.9808    1.6743   -3.8043 O   0  0  0  0  0  0  0  0  0  0  0  0
   -4.9206    2.6724   -4.4657 C   0  0  0  0  0  0  0  0  0  0  0  0
   -5.2570   -6.3682   -3.2356 O   0  0  0  0  0  0  0  0  0  0  0  0
   -6.5702   -6.1826   -3.0237 C   0  0  0  0  0  0  0  0  0  0  0  0
   -2.2263   -5.5658   -1.1991 N   0  0  0  0  0  0  0  0  0  0  0  0
   -1.0053   -6.4356   -1.3469 C   0  0  0  0  0  0  0  0  0  0  0  0
   -2.1975   -4.4531   -0.3756 C   0  0  0  0  0  0  0  0  0  0  0  0
   -3.4450   -4.0522   -0.0934 O   0  0  0  0  0  0  0  0  0  0  0  0
   -1.1954   -3.6583    0.2248 C   0  0  1  0  0  0  0  0  0  0  0  0
   -0.9813   -3.9158    1.7108 C   0  0  0  0  0  0  0  0  0  0  0  0
   -0.5727   -5.3564    1.9515 C   0  0  0  0  0  0  0  0  0  0  0  0
   -2.1575   -3.6131    2.5470 C   0  0  0  0  0  0  0  0  0  0  0  0
    0.0773   -3.3264   -0.3578 N   0  0  0  0  0  0  0  0  0  0  0  0
    0.5328   -3.4324   -1.6719 C   0  0  0  0  0  0  0  0  0  0  0  0
   -0.0529   -3.9167   -2.5685 O   0  0  0  0  0  0  0  0  0  0  0  0
    2.0132   -2.7830   -1.9502 C   0  0  1  0  0  0  0  0  0  0  0  0
    2.5331   -3.5732   -3.0542 C   0  0  0  0  0  0  0  0  0  0  0  0
    2.6511   -5.0370   -2.5808 C   0  0  0  0  0  0  0  0  0  0  0  0
    1.6692   -3.6442   -4.3057 C   0  0  0  0  0  0  0  0  0  0  0  0
    1.5578   -1.4434   -2.1144 N   0  0  0  0  0  0  0  0  0  0  0  0
    1.2516   -0.7222   -0.8644 C   0  0  0  0  0  0  0  0  0  0  0  0
    1.4016   -0.7019   -3.3131 C   0  0  0  0  0  0  0  0  0  0  0  0
    2.1416   -0.8155   -4.3349 O   0  0  0  0  0  0  0  0  0  0  0  0
    0.3286    0.1903   -3.3336 O   0  0  0  0  0  0  0  0  0  0  0  0
    0.0935    1.1125   -4.4271 C   0  0  0  0  0  0  0  0  0  0  0  0
    1.0686    2.2382   -4.0993 C   0  0  0  0  0  0  0  0  0  0  0  0
    2.3289    2.3665   -4.5423 C   0  0  0  0  0  0  0  0  0  0  0  0
    3.0790    3.4140   -3.9398 C   0  0  0  0  0  0  0  0  0  0  0  0
    2.5569    4.2306   -2.9830 C   0  0  0  0  0  0  0  0  0  0  0  0
    1.2247    4.0815   -2.5345 C   0  0  0  0  0  0  0  0  0  0  0  0
    0.5309    3.0841   -3.1199 C   0  0  0  0  0  0  0  0  0  0  0  0
    3.2936    5.1563   -2.1849 N   0  0  0  0  0  0  0  0  0  0  0  0
    4.6581    5.1006   -1.9541 C   0  0  0  0  0  0  0  0  0  0  0  0
    5.2791    4.1678   -2.5850 O   0  0  0  0  0  0  0  0  0  0  0  0
    5.4877    5.9639   -1.0652 C   0  0  1  0  0  0  0  0  0  0  0  0
    6.3403    6.8980   -1.8144 C   0  0  0  0  0  0  0  0  0  0  0  0
    7.4010    6.3070   -2.6820 C   0  0  0  0  0  0  0  0  0  0  0  0
    8.5086    5.6062   -2.0067 C   0  0  0  0  0  0  0  0  0  0  0  0
    8.3519    4.4223   -1.2754 N   0  0  0  0  0  0  0  0  0  0  0  0
    8.0358    3.1634   -1.8835 C   0  0  0  0  0  0  0  0  0  0  0  0
    7.8955    2.9580   -3.0901 O   0  0  0  0  0  0  0  0  0  0  0  0
    7.8698    2.0459   -0.9887 N   0  0  0  0  0  0  0  0  0  0  0  0
    4.7305    6.4858    0.0277 N   0  0  0  0  0  0  0  0  0  0  0  0
    3.5331    7.2092    0.0764 C   0  0  0  0  0  0  0  0  0  0  0  0
    2.9867    7.5559   -0.9999 O   0  0  0  0  0  0  0  0  0  0  0  0
    2.8363    7.6023    1.3276 C   0  0  1  0  0  0  0  0  0  0  0  0
    1.3413    7.7560    1.0774 C   0  0  0  0  0  0  0  0  0  0  0  0
    0.5864    6.5687    0.6888 C   0  0  0  0  0  0  0  0  0  0  0  0
    0.7214    8.7438    1.9895 C   0  0  0  0  0  0  0  0  0  0  0  0
    3.1648    6.6949    2.3884 N   0  0  0  0  0  0  0  0  0  0  0  0
    2.6650    6.4749    3.6623 C   0  0  0  0  0  0  0  0  0  0  0  0
    1.6989    7.0903    4.1432 O   0  0  0  0  0  0  0  0  0  0  0  0
    3.3456    5.4336    4.4902 C   0  0  0  0  0  0  0  0  0  0  0  0
    2.8181    5.1296    5.8100 C   0  0  0  0  0  0  0  0  0  0  0  0
    1.4677    4.5059    5.9258 C   0  0  0  0  0  0  0  0  0  0  0  0
    1.3602    3.1311    5.3307 C   0  0  0  0  0  0  0  0  0  0  0  0
    2.3061    2.1403    6.0208 C   0  0  0  0  0  0  0  0  0  0  0  0
    1.9626    2.0013    7.4035 N   0  0  0  0  0  0  0  0  0  0  0  0
    1.0212    1.0035    7.8548 C   0  0  0  0  0  0  0  0  0  0  0  0
    0.4008    0.1596    7.1589 O   0  0  0  0  0  0  0  0  0  0  0  0
    0.8752    1.0905    9.3090 C   0  0  0  0  0  0  0  0  0  0  0  0
    1.6640    2.0709    9.7400 C   0  0  0  0  0  0  0  0  0  0  0  0
    2.3657    2.6675    8.5781 C   0  0  0  0  0  0  0  0  0  0  0  0
    3.1701    3.6090    8.7317 O   0  0  0  0  0  0  0  0  0  0  0  0
   -4.2601  -10.2022   -0.4947 H   0  0  0  0  0  0  0  0  0  0  0  0
   -5.8623   -9.5783    0.1161 H   0  0  0  0  0  0  0  0  0  0  0  0
   -4.3796   -8.8815    0.7623 H   0  0  0  0  0  0  0  0  0  0  0  0
   -4.1833   -8.7399   -2.1715 H   0  0  0  0  0  0  0  0  0  0  0  0
   -5.7985   -8.2245   -1.6048 H   0  0  0  0  0  0  0  0  0  0  0  0
   -3.1073   -7.5602   -0.2788 H   0  0  0  0  0  0  0  0  0  0  0  0
   -4.1564   -6.2608    1.2153 H   0  0  0  0  0  0  0  0  0  0  0  0
   -5.4773   -7.2732    0.6910 H   0  0  0  0  0  0  0  0  0  0  0  0
   -5.4901   -5.6634    0.0627 H   0  0  0  0  0  0  0  0  0  0  0  0
   -2.9474   -6.9732   -2.5513 H   0  0  0  0  0  0  0  0  0  0  0  0
   -5.1579   -4.9565   -1.8829 H   0  0  0  0  0  0  0  0  0  0  0  0
   -5.0050   -4.3098   -4.4020 H   0  0  0  0  0  0  0  0  0  0  0  0
   -3.3651   -4.8224   -4.3561 H   0  0  0  0  0  0  0  0  0  0  0  0
   -6.7175   -1.4050   -3.6148 H   0  0  0  0  0  0  0  0  0  0  0  0
   -6.4195   -3.1766   -3.8702 H   0  0  0  0  0  0  0  0  0  0  0  0
   -4.9673   -2.3781   -5.9253 H   0  0  0  0  0  0  0  0  0  0  0  0
   -6.7138   -1.8083   -6.1096 H   0  0  0  0  0  0  0  0  0  0  0  0
   -4.6382   -0.0161   -6.0058 H   0  0  0  0  0  0  0  0  0  0  0  0
   -6.2307    0.1865   -5.0517 H   0  0  0  0  0  0  0  0  0  0  0  0
   -3.4621   -0.3117   -4.1493 H   0  0  0  0  0  0  0  0  0  0  0  0
   -6.2043    0.3699   -2.9238 H   0  0  0  0  0  0  0  0  0  0  0  0
   -3.4791    1.2012   -1.9042 H   0  0  0  0  0  0  0  0  0  0  0  0
   -5.9155    1.8406   -0.2792 H   0  0  0  0  0  0  0  0  0  0  0  0
   -4.6584    2.9169   -0.9447 H   0  0  0  0  0  0  0  0  0  0  0  0
   -6.1160    2.3632   -1.9475 H   0  0  0  0  0  0  0  0  0  0  0  0
   -4.0502    1.5955    0.7268 H   0  0  0  0  0  0  0  0  0  0  0  0
   -3.6579   -1.2027    1.7715 H   0  0  0  0  0  0  0  0  0  0  0  0
   -6.1291   -0.6584    1.8360 H   0  0  0  0  0  0  0  0  0  0  0  0
   -5.6289    0.5653    3.1080 H   0  0  0  0  0  0  0  0  0  0  0  0
   -5.2703   -1.1401    3.3215 H   0  0  0  0  0  0  0  0  0  0  0  0
   -3.0297   -0.0716    3.8398 H   0  0  0  0  0  0  0  0  0  0  0  0
   -2.5924    2.9927    2.0166 H   0  0  0  0  0  0  0  0  0  0  0  0
   -0.4079    3.8421    1.2236 H   0  0  0  0  0  0  0  0  0  0  0  0
    1.5157    2.4010    1.1774 H   0  0  0  0  0  0  0  0  0  0  0  0
    1.3837    0.0222    2.0334 H   0  0  0  0  0  0  0  0  0  0  0  0
   -0.7536   -0.7582    2.8373 H   0  0  0  0  0  0  0  0  0  0  0  0
   -4.2916    2.1232    2.6184 H   0  0  0  0  0  0  0  0  0  0  0  0
   -5.3440    2.6479   -5.5445 H   0  0  0  0  0  0  0  0  0  0  0  0
   -5.4136    3.6474   -4.1156 H   0  0  0  0  0  0  0  0  0  0  0  0
   -3.8757    3.1323   -4.7317 H   0  0  0  0  0  0  0  0  0  0  0  0
   -7.0600   -5.2756   -3.3905 H   0  0  0  0  0  0  0  0  0  0  0  0
   -6.8469   -6.2071   -1.9255 H   0  0  0  0  0  0  0  0  0  0  0  0
   -7.1664   -7.0246   -3.4941 H   0  0  0  0  0  0  0  0  0  0  0  0
   -0.8405   -6.7277   -2.3832 H   0  0  0  0  0  0  0  0  0  0  0  0
   -0.1120   -6.0064   -0.9267 H   0  0  0  0  0  0  0  0  0  0  0  0
   -1.1676   -7.3543   -0.6792 H   0  0  0  0  0  0  0  0  0  0  0  0
   -1.6872   -2.6152    0.2120 H   0  0  0  0  0  0  0  0  0  0  0  0
   -0.1000   -3.2485    1.9946 H   0  0  0  0  0  0  0  0  0  0  0  0
   -1.4472   -5.9847    1.8424 H   0  0  0  0  0  0  0  0  0  0  0  0
    0.3355   -5.6916    1.4752 H   0  0  0  0  0  0  0  0  0  0  0  0
   -0.3348   -5.3980    3.0634 H   0  0  0  0  0  0  0  0  0  0  0  0
   -3.1142   -3.4381    2.0310 H   0  0  0  0  0  0  0  0  0  0  0  0
   -2.3497   -4.4955    3.2350 H   0  0  0  0  0  0  0  0  0  0  0  0
   -1.9723   -2.7782    3.2897 H   0  0  0  0  0  0  0  0  0  0  0  0
    0.7646   -2.9318    0.3768 H   0  0  0  0  0  0  0  0  0  0  0  0
    2.3723   -3.1121   -0.9753 H   0  0  0  0  0  0  0  0  0  0  0  0
    3.5933   -3.3262   -3.3485 H   0  0  0  0  0  0  0  0  0  0  0  0
    2.2804   -5.1370   -1.5436 H   0  0  0  0  0  0  0  0  0  0  0  0
    2.1746   -5.7333   -3.2996 H   0  0  0  0  0  0  0  0  0  0  0  0
    3.7127   -5.3526   -2.5440 H   0  0  0  0  0  0  0  0  0  0  0  0
    1.3267   -4.6890   -4.5152 H   0  0  0  0  0  0  0  0  0  0  0  0
    0.8027   -2.9825   -4.2670 H   0  0  0  0  0  0  0  0  0  0  0  0
    2.2846   -3.4012   -5.2103 H   0  0  0  0  0  0  0  0  0  0  0  0
    1.3663    0.3581   -1.0703 H   0  0  0  0  0  0  0  0  0  0  0  0
    0.1929   -0.8768   -0.5641 H   0  0  0  0  0  0  0  0  0  0  0  0
    2.0072   -0.9968   -0.1036 H   0  0  0  0  0  0  0  0  0  0  0  0
    0.3132    0.6366   -5.3771 H   0  0  0  0  0  0  0  0  0  0  0  0
   -0.9159    1.4940   -4.3004 H   0  0  0  0  0  0  0  0  0  0  0  0
    2.7326    1.7252   -5.2828 H   0  0  0  0  0  0  0  0  0  0  0  0
    4.0771    3.4856   -4.3236 H   0  0  0  0  0  0  0  0  0  0  0  0
    0.7926    4.7004   -1.7908 H   0  0  0  0  0  0  0  0  0  0  0  0
   -0.5093    2.9599   -2.7683 H   0  0  0  0  0  0  0  0  0  0  0  0
    2.7516    5.9607   -1.7785 H   0  0  0  0  0  0  0  0  0  0  0  0
    6.2330    5.2205   -0.5643 H   0  0  0  0  0  0  0  0  0  0  0  0
    5.7097    7.5471   -2.5114 H   0  0  0  0  0  0  0  0  0  0  0  0
    6.8352    7.6498   -1.1266 H   0  0  0  0  0  0  0  0  0  0  0  0
    7.8134    7.1242   -3.3565 H   0  0  0  0  0  0  0  0  0  0  0  0
    6.9250    5.5919   -3.4107 H   0  0  0  0  0  0  0  0  0  0  0  0
    9.2733    5.3686   -2.8377 H   0  0  0  0  0  0  0  0  0  0  0  0
    9.0924    6.3885   -1.4155 H   0  0  0  0  0  0  0  0  0  0  0  0
    8.4508    4.4103   -0.2075 H   0  0  0  0  0  0  0  0  0  0  0  0
    6.8918    1.8320   -0.6870 H   0  0  0  0  0  0  0  0  0  0  0  0
    8.7148    1.5303   -0.6935 H   0  0  0  0  0  0  0  0  0  0  0  0
    5.1797    6.3089    0.9974 H   0  0  0  0  0  0  0  0  0  0  0  0
    3.1292    8.6156    1.6544 H   0  0  0  0  0  0  0  0  0  0  0  0
    1.3760    8.3794    0.0433 H   0  0  0  0  0  0  0  0  0  0  0  0
   -0.0335    6.1623    1.5539 H   0  0  0  0  0  0  0  0  0  0  0  0
   -0.1966    6.8092   -0.0769 H   0  0  0  0  0  0  0  0  0  0  0  0
    1.2221    5.7608    0.2558 H   0  0  0  0  0  0  0  0  0  0  0  0
    0.2539    9.6352    1.4743 H   0  0  0  0  0  0  0  0  0  0  0  0
   -0.0880    8.3029    2.6040 H   0  0  0  0  0  0  0  0  0  0  0  0
    1.5076    9.2251    2.6473 H   0  0  0  0  0  0  0  0  0  0  0  0
    3.9996    6.0335    2.1649 H   0  0  0  0  0  0  0  0  0  0  0  0
    3.5273    4.5538    3.8210 H   0  0  0  0  0  0  0  0  0  0  0  0
    4.4030    5.8380    4.6395 H   0  0  0  0  0  0  0  0  0  0  0  0
    3.5721    4.4770    6.3068 H   0  0  0  0  0  0  0  0  0  0  0  0
    2.7754    6.0482    6.4439 H   0  0  0  0  0  0  0  0  0  0  0  0
    1.1889    4.4027    6.9880 H   0  0  0  0  0  0  0  0  0  0  0  0
    0.6500    5.1098    5.4738 H   0  0  0  0  0  0  0  0  0  0  0  0
    0.3382    2.7581    5.5934 H   0  0  0  0  0  0  0  0  0  0  0  0
    1.4484    3.1150    4.2376 H   0  0  0  0  0  0  0  0  0  0  0  0
    3.3401    2.5326    5.8844 H   0  0  0  0  0  0  0  0  0  0  0  0
    2.1644    1.1603    5.5153 H   0  0  0  0  0  0  0  0  0  0  0  0
    0.2589    0.4944    9.9689 H   0  0  0  0  0  0  0  0  0  0  0  0
    1.7695    2.3764   10.7761 H   0  0  0  0  0  0  0  0  0  0  0  0
  1  2  1  0
  2  3  1  0
  3  4  1  0
  3  5  1  0
  5  6  1  0
  6  7  1  0
  7  8  1  0
  8  9  2  0
  8 10  1  0
 10 11  1  0
 11 12  1  0
 12 13  1  0
 13 14  1  0
 14 15  1  0
 15 16  1  0
 16 17  1  0
 16 18  1  0
 18 19  2  0
 18 20  1  0
 20 21  1  0
 21 22  1  0
 21 23  1  0
 23 24  1  0
 24 25  2  0
 25 26  1  0
 26 27  2  0
 27 28  1  0
 28 29  2  0
 23 30  1  0
 15 31  1  0
 31 32  1  0
  6 33  1  0
 33 34  1  0
  5 35  1  0
 35 36  1  0
 35 37  1  0
 37 38  2  0
 37 39  1  0
 39 40  1  0
 40 41  1  0
 40 42  1  0
 39 43  1  0
 43 44  1  0
 44 45  2  0
 44 46  1  0
 46 47  1  0
 47 48  1  0
 47 49  1  0
 46 50  1  0
 50 51  1  0
 50 52  1  0
 52 53  2  0
 52 54  1  0
 54 55  1  0
 55 56  1  0
 56 57  1  0
 57 58  2  0
 58 59  1  0
 59 60  2  0
 60 61  1  0
 59 62  1  0
 62 63  1  0
 63 64  2  0
 63 65  1  0
 65 66  1  0
 66 67  1  0
 67 68  1  0
 68 69  1  0
 69 70  1  0
 70 71  2  0
 70 72  1  0
 65 73  1  0
 73 74  1  0
 74 75  2  0
 74 76  1  0
 76 77  1  0
 77 78  1  0
 77 79  1  0
 76 80  1  0
 80 81  1  0
 81 82  2  0
 81 83  1  0
 83 84  1  0
 84 85  1  0
 85 86  1  0
 86 87  1  0
 87 88  1  0
 88 89  1  0
 89 90  2  0
 89 91  1  0
 91 92  2  0
 92 93  1  0
 93 94  2  0
 14 10  1  0
 29 24  1  0
 61 56  2  0
 93 88  1  0
  1 95  1  0
  1 96  1  0
  1 97  1  0
  2 98  1  0
  2 99  1  0
  3100  1  1
  4101  1  0
  4102  1  0
  4103  1  0
  5104  1  6
  6105  1  1
  7106  1  0
  7107  1  0
 11108  1  0
 11109  1  0
 12110  1  0
 12111  1  0
 13112  1  0
 13113  1  0
 14114  1  6
 15115  1  1
 16116  1  6
 17117  1  0
 17118  1  0
 17119  1  0
 20120  1  0
 21121  1  6
 22122  1  0
 22123  1  0
 22124  1  0
 23125  1  1
 25126  1  0
 26127  1  0
 27128  1  0
 28129  1  0
 29130  1  0
 30131  1  0
 32132  1  0
 32133  1  0
 32134  1  0
 34135  1  0
 34136  1  0
 34137  1  0
 36138  1  0
 36139  1  0
 36140  1  0
 39141  1  1
 40142  1  0
 41143  1  0
 41144  1  0
 41145  1  0
 42146  1  0
 42147  1  0
 42148  1  0
 43149  1  0
 46150  1  1
 47151  1  0
 48152  1  0
 48153  1  0
 48154  1  0
 49155  1  0
 49156  1  0
 49157  1  0
 51158  1  0
 51159  1  0
 51160  1  0
 55161  1  0
 55162  1  0
 57163  1  0
 58164  1  0
 60165  1  0
 61166  1  0
 62167  1  0
 65168  1  1
 66169  1  0
 66170  1  0
 67171  1  0
 67172  1  0
 68173  1  0
 68174  1  0
 69175  1  0
 72176  1  0
 72177  1  0
 73178  1  0
 76179  1  1
 77180  1  0
 78181  1  0
 78182  1  0
 78183  1  0
 79184  1  0
 79185  1  0
 79186  1  0
 80187  1  0
 83188  1  0
 83189  1  0
 84190  1  0
 84191  1  0
 85192  1  0
 85193  1  0
 86194  1  0
 86195  1  0
 87196  1  0
 87197  1  0
 91198  1  0
 92199  1  0
M  END
$$$$

     RDKit          3D

199202  0  0  0  0  0  0  0  0999 V2000
   -4.2330   -3.3867   -1.1885 C   0  0  0  0  0  0  0  0  0  0  0  0
   -4.3271   -4.8337   -1.5787 C   0  0  0  0  0  0  0  0  0  0  0  0
   -3.2034   -5.6796   -0.9890 C   0  0  2  0  0  0  0  0  0  0  0  0
   -3.2836   -5.5466    0.4785 C   0  0  0  0  0  0  0  0  0  0  0  0
   -1.9231   -5.4230   -1.7054 C   0  0  1  0  0  0  0  0  0  0  0  0
   -0.7329   -6.1735   -1.2660 C   0  0  1  0  0  0  0  0  0  0  0  0
   -0.2934   -6.0222    0.1627 C   0  0  0  0  0  0  0  0  0  0  0  0
    0.1025   -4.6957    0.6231 C   0  0  0  0  0  0  0  0  0  0  0  0
    0.2170   -3.6529   -0.0450 O   0  0  0  0  0  0  0  0  0  0  0  0
    0.4047   -4.5668    2.0365 N   0  0  0  0  0  0  0  0  0  0  0  0
    0.2916   -5.5473    3.0718 C   0  0  0  0  0  0  0  0  0  0  0  0
   -0.3210   -4.6777    4.1820 C   0  0  0  0  0  0  0  0  0  0  0  0
    0.6132   -3.4831    4.1154 C   0  0  0  0  0  0  0  0  0  0  0  0
    0.9398   -3.3448    2.6766 C   0  0  1  0  0  0  0  0  0  0  0  0
    2.4393   -3.2546    2.3727 C   0  0  1  0  0  0  0  0  0  0  0  0
    3.0033   -1.8987    2.6025 C   0  0  1  0  0  0  0  0  0  0  0  0
    2.8460   -1.3940    4.0335 C   0  0  0  0  0  0  0  0  0  0  0  0
    4.4422   -1.7726    2.2839 C   0  0  0  0  0  0  0  0  0  0  0  0
    5.2325   -2.6817    2.0006 O   0  0  0  0  0  0  0  0  0  0  0  0
    4.9977   -0.4361    2.3022 N   0  0  0  0  0  0  0  0  0  0  0  0
    6.4031   -0.2500    1.9892 C   0  0  2  0  0  0  0  0  0  0  0  0
    7.0941    0.1833    3.3000 C   0  0  0  0  0  0  0  0  0  0  0  0
    6.6089    0.8963    1.0431 C   0  0  1  0  0  0  0  0  0  0  0  0
    5.9451    0.7608   -0.2624 C   0  0  0  0  0  0  0  0  0  0  0  0
    5.5165   -0.4187   -0.8120 C   0  0  0  0  0  0  0  0  0  0  0  0
    4.8805   -0.4829   -2.0597 C   0  0  0  0  0  0  0  0  0  0  0  0
    4.6912    0.7003   -2.7398 C   0  0  0  0  0  0  0  0  0  0  0  0
    5.1065    1.9268   -2.2297 C   0  0  0  0  0  0  0  0  0  0  0  0
    5.7216    1.9104   -1.0035 C   0  0  0  0  0  0  0  0  0  0  0  0
    6.1015    2.0476    1.6811 O   0  0  0  0  0  0  0  0  0  0  0  0
    3.1399   -4.2998    2.9003 O   0  0  0  0  0  0  0  0  0  0  0  0
    3.5983   -5.2526    2.0225 C   0  0  0  0  0  0  0  0  0  0  0  0
   -0.8661   -7.5642   -1.5431 O   0  0  0  0  0  0  0  0  0  0  0  0
    0.1958   -7.9382   -2.3742 C   0  0  0  0  0  0  0  0  0  0  0  0
   -2.2523   -5.5765   -3.1299 N   0  0  0  0  0  0  0  0  0  0  0  0
   -2.6463   -6.9552   -3.5338 C   0  0  0  0  0  0  0  0  0  0  0  0
   -2.2800   -4.6310   -4.1358 C   0  0  0  0  0  0  0  0  0  0  0  0
   -2.7398   -5.0512   -5.2915 O   0  0  0  0  0  0  0  0  0  0  0  0
   -1.8958   -3.2170   -4.1697 C   0  0  1  0  0  0  0  0  0  0  0  0
   -0.4285   -3.0623   -4.6009 C   0  0  0  0  0  0  0  0  0  0  0  0
   -0.1457   -3.5906   -5.9629 C   0  0  0  0  0  0  0  0  0  0  0  0
    0.5329   -3.7032   -3.6596 C   0  0  0  0  0  0  0  0  0  0  0  0
   -2.6699   -2.5728   -5.2734 N   0  0  0  0  0  0  0  0  0  0  0  0
   -3.5708   -1.5454   -5.0797 C   0  0  0  0  0  0  0  0  0  0  0  0
   -3.7193   -1.1783   -3.8311 O   0  0  0  0  0  0  0  0  0  0  0  0
   -4.3825   -0.8035   -6.0244 C   0  0  1  0  0  0  0  0  0  0  0  0
   -4.6613   -1.4923   -7.2942 C   0  0  0  0  0  0  0  0  0  0  0  0
   -3.4716   -1.8172   -8.1502 C   0  0  0  0  0  0  0  0  0  0  0  0
   -5.5869   -0.5837   -8.1231 C   0  0  0  0  0  0  0  0  0  0  0  0
   -5.5121   -0.0991   -5.4336 N   0  0  0  0  0  0  0  0  0  0  0  0
   -6.7062   -0.7706   -4.9562 C   0  0  0  0  0  0  0  0  0  0  0  0
   -5.4058    1.3338   -5.3332 C   0  0  0  0  0  0  0  0  0  0  0  0
   -4.3234    1.8134   -5.7556 O   0  0  0  0  0  0  0  0  0  0  0  0
   -6.4237    2.1078   -4.8111 O   0  0  0  0  0  0  0  0  0  0  0  0
   -6.3759    3.5232   -4.6769 C   0  0  0  0  0  0  0  0  0  0  0  0
   -5.2861    3.9858   -3.7792 C   0  0  0  0  0  0  0  0  0  0  0  0
   -4.0376    4.3230   -4.2730 C   0  0  0  0  0  0  0  0  0  0  0  0
   -3.0910    4.6925   -3.3492 C   0  0  0  0  0  0  0  0  0  0  0  0
   -3.3528    4.7348   -1.9742 C   0  0  0  0  0  0  0  0  0  0  0  0
   -4.5955    4.4035   -1.4831 C   0  0  0  0  0  0  0  0  0  0  0  0
   -5.5515    4.0291   -2.4165 C   0  0  0  0  0  0  0  0  0  0  0  0
   -2.2326    5.0703   -1.1651 N   0  0  0  0  0  0  0  0  0  0  0  0
   -1.7828    6.3825   -0.8986 C   0  0  0  0  0  0  0  0  0  0  0  0
   -2.4037    7.3614   -1.3729 O   0  0  0  0  0  0  0  0  0  0  0  0
   -0.5464    6.6562   -0.0471 C   0  0  1  0  0  0  0  0  0  0  0  0
   -0.8937    7.4558    1.1538 C   0  0  0  0  0  0  0  0  0  0  0  0
    0.3383    7.8946    1.9027 C   0  0  0  0  0  0  0  0  0  0  0  0
    1.1679    8.8371    0.9898 C   0  0  0  0  0  0  0  0  0  0  0  0
    2.3070    9.2582    1.7796 N   0  0  0  0  0  0  0  0  0  0  0  0
    2.1878    9.9893    2.9997 C   0  0  0  0  0  0  0  0  0  0  0  0
    1.0774   10.3232    3.4881 O   0  0  0  0  0  0  0  0  0  0  0  0
    3.3668   10.3797    3.7320 N   0  0  0  0  0  0  0  0  0  0  0  0
   -0.1376    5.2870    0.3114 N   0  0  0  0  0  0  0  0  0  0  0  0
    0.0434    4.6566    1.5066 C   0  0  0  0  0  0  0  0  0  0  0  0
   -0.0651    5.0700    2.6882 O   0  0  0  0  0  0  0  0  0  0  0  0
    0.4416    3.1749    1.4635 C   0  0  1  0  0  0  0  0  0  0  0  0
    1.2239    2.7669    0.2964 C   0  0  0  0  0  0  0  0  0  0  0  0
    2.5332    3.5122    0.1314 C   0  0  0  0  0  0  0  0  0  0  0  0
    1.5170    1.2737    0.4530 C   0  0  0  0  0  0  0  0  0  0  0  0
    0.8085    2.6880    2.7469 N   0  0  0  0  0  0  0  0  0  0  0  0
   -0.0176    2.5858    3.8815 C   0  0  0  0  0  0  0  0  0  0  0  0
   -1.2309    2.9589    3.8797 O   0  0  0  0  0  0  0  0  0  0  0  0
    0.5552    2.0195    5.1318 C   0  0  0  0  0  0  0  0  0  0  0  0
   -0.2543    2.3227    6.3619 C   0  0  0  0  0  0  0  0  0  0  0  0
    0.3729    1.6748    7.5987 C   0  0  0  0  0  0  0  0  0  0  0  0
    0.3521    0.1823    7.5218 C   0  0  0  0  0  0  0  0  0  0  0  0
    1.0105   -0.4792    8.7336 C   0  0  0  0  0  0  0  0  0  0  0  0
    2.4166   -0.1601    8.8330 N   0  0  0  0  0  0  0  0  0  0  0  0
    3.4128   -0.9977    8.1957 C   0  0  0  0  0  0  0  0  0  0  0  0
    3.1938   -2.0480    7.5145 O   0  0  0  0  0  0  0  0  0  0  0  0
    4.7212   -0.3995    8.4886 C   0  0  0  0  0  0  0  0  0  0  0  0
    4.5265    0.6851    9.2249 C   0  0  0  0  0  0  0  0  0  0  0  0
    3.1019    0.8943    9.4781 C   0  0  0  0  0  0  0  0  0  0  0  0
    2.5575    1.8117   10.1346 O   0  0  0  0  0  0  0  0  0  0  0  0
   -4.7709   -3.1834   -0.2265 H   0  0  0  0  0  0  0  0  0  0  0  0
   -4.8112   -2.8216   -1.9491 H   0  0  0  0  0  0  0  0  0  0  0  0
   -3.2110   -2.9782   -1.1773 H   0  0  0  0  0  0  0  0  0  0  0  0
   -5.3142   -5.1991   -1.2092 H   0  0  0  0  0  0  0  0  0  0  0  0
   -4.3295   -4.8951   -2.6837 H   0  0  0  0  0  0  0  0  0  0  0  0
   -3.5533   -6.7457   -1.2041 H   0  0  0  0  0  0  0  0  0  0  0  0
   -4.3611   -5.2089    0.7104 H   0  0  0  0  0  0  0  0  0  0  0  0
   -3.2795   -6.5397    1.0305 H   0  0  0  0  0  0  0  0  0  0  0  0
   -2.6975   -4.7648    0.9616 H   0  0  0  0  0  0  0  0  0  0  0  0
   -1.7200   -4.3092   -1.6082 H   0  0  0  0  0  0  0  0  0  0  0  0
    0.1536   -5.8856   -1.8700 H   0  0  0  0  0  0  0  0  0  0  0  0
    0.6324   -6.6983    0.2253 H   0  0  0  0  0  0  0  0  0  0  0  0
   -1.0008   -6.4150    0.9145 H   0  0  0  0  0  0  0  0  0  0  0  0
   -0.4752   -6.3223    2.8749 H   0  0  0  0  0  0  0  0  0  0  0  0
    1.2126   -5.9967    3.4281 H   0  0  0  0  0  0  0  0  0  0  0  0
   -1.3093   -4.3153    3.8407 H   0  0  0  0  0  0  0  0  0  0  0  0
   -0.3306   -5.1969    5.1387 H   0  0  0  0  0  0  0  0  0  0  0  0
    0.0925   -2.5996    4.5641 H   0  0  0  0  0  0  0  0  0  0  0  0
    1.5212   -3.7536    4.6734 H   0  0  0  0  0  0  0  0  0  0  0  0
    0.3969   -2.5015    2.2269 H   0  0  0  0  0  0  0  0  0  0  0  0
    2.5037   -3.4130    1.2291 H   0  0  0  0  0  0  0  0  0  0  0  0
    2.4013   -1.1515    1.9969 H   0  0  0  0  0  0  0  0  0  0  0  0
    1.8305   -1.0348    4.2619 H   0  0  0  0  0  0  0  0  0  0  0  0
    3.2481   -2.1442    4.7359 H   0  0  0  0  0  0  0  0  0  0  0  0
    3.5009   -0.4783    4.1211 H   0  0  0  0  0  0  0  0  0  0  0  0
    4.3866    0.3801    2.5374 H   0  0  0  0  0  0  0  0  0  0  0  0
    6.8216   -1.2045    1.6929 H   0  0  0  0  0  0  0  0  0  0  0  0
    8.1052    0.5484    3.0803 H   0  0  0  0  0  0  0  0  0  0  0  0
    7.1036   -0.6117    4.0518 H   0  0  0  0  0  0  0  0  0  0  0  0
    6.5143    1.0476    3.7101 H   0  0  0  0  0  0  0  0  0  0  0  0
    7.7113    1.1272    0.9289 H   0  0  0  0  0  0  0  0  0  0  0  0
    5.6627   -1.3316   -0.2994 H   0  0  0  0  0  0  0  0  0  0  0  0
    4.5543   -1.4316   -2.4711 H   0  0  0  0  0  0  0  0  0  0  0  0
    4.1979    0.6797   -3.7141 H   0  0  0  0  0  0  0  0  0  0  0  0
    4.9425    2.8315   -2.7911 H   0  0  0  0  0  0  0  0  0  0  0  0
    6.0450    2.8894   -0.6181 H   0  0  0  0  0  0  0  0  0  0  0  0
    5.1390    2.0678    1.7561 H   0  0  0  0  0  0  0  0  0  0  0  0
    4.1570   -6.0019    2.6431 H   0  0  0  0  0  0  0  0  0  0  0  0
    2.7412   -5.8541    1.5883 H   0  0  0  0  0  0  0  0  0  0  0  0
    4.1587   -4.8893    1.1560 H   0  0  0  0  0  0  0  0  0  0  0  0
    0.2012   -7.3762   -3.3134 H   0  0  0  0  0  0  0  0  0  0  0  0
    0.1795   -9.0071   -2.6270 H   0  0  0  0  0  0  0  0  0  0  0  0
    1.1202   -7.7802   -1.7729 H   0  0  0  0  0  0  0  0  0  0  0  0
   -3.6186   -6.8774   -4.1132 H   0  0  0  0  0  0  0  0  0  0  0  0
   -2.7239   -7.6474   -2.7061 H   0  0  0  0  0  0  0  0  0  0  0  0
   -1.9380   -7.3518   -4.2797 H   0  0  0  0  0  0  0  0  0  0  0  0
   -2.1144   -2.7104   -3.2653 H   0  0  0  0  0  0  0  0  0  0  0  0
   -0.1959   -1.9455   -4.5376 H   0  0  0  0  0  0  0  0  0  0  0  0
    0.0823   -2.7382   -6.6727 H   0  0  0  0  0  0  0  0  0  0  0  0
   -0.9178   -4.2475   -6.3190 H   0  0  0  0  0  0  0  0  0  0  0  0
    0.8173   -4.1930   -5.9977 H   0  0  0  0  0  0  0  0  0  0  0  0
    1.5498   -3.2557   -3.9290 H   0  0  0  0  0  0  0  0  0  0  0  0
    0.3958   -3.4482   -2.6228 H   0  0  0  0  0  0  0  0  0  0  0  0
    0.6959   -4.7886   -3.8722 H   0  0  0  0  0  0  0  0  0  0  0  0
   -2.4939   -2.9555   -6.2114 H   0  0  0  0  0  0  0  0  0  0  0  0
   -3.6865    0.1017   -6.2941 H   0  0  0  0  0  0  0  0  0  0  0  0
   -5.1935   -2.4815   -7.1352 H   0  0  0  0  0  0  0  0  0  0  0  0
   -3.6659   -1.3446   -9.1832 H   0  0  0  0  0  0  0  0  0  0  0  0
   -3.4303   -2.8827   -8.3650 H   0  0  0  0  0  0  0  0  0  0  0  0
   -2.5209   -1.3481   -7.8051 H   0  0  0  0  0  0  0  0  0  0  0  0
   -5.4745    0.4860   -7.8496 H   0  0  0  0  0  0  0  0  0  0  0  0
   -5.3286   -0.6618   -9.2007 H   0  0  0  0  0  0  0  0  0  0  0  0
   -6.6326   -0.9471   -8.0551 H   0  0  0  0  0  0  0  0  0  0  0  0
   -6.3899   -1.6713   -4.3937 H   0  0  0  0  0  0  0  0  0  0  0  0
   -7.3878   -1.1048   -5.7630 H   0  0  0  0  0  0  0  0  0  0  0  0
   -7.2269   -0.1230   -4.2166 H   0  0  0  0  0  0  0  0  0  0  0  0
   -7.3733    3.8902   -4.3767 H   0  0  0  0  0  0  0  0  0  0  0  0
   -6.2204    3.9014   -5.7114 H   0  0  0  0  0  0  0  0  0  0  0  0
   -3.7792    4.3374   -5.3025 H   0  0  0  0  0  0  0  0  0  0  0  0
   -2.0950    4.9656   -3.7296 H   0  0  0  0  0  0  0  0  0  0  0  0
   -4.7847    4.4462   -0.4273 H   0  0  0  0  0  0  0  0  0  0  0  0
   -6.5228    3.7721   -2.0304 H   0  0  0  0  0  0  0  0  0  0  0  0
   -1.7475    4.2119   -0.7482 H   0  0  0  0  0  0  0  0  0  0  0  0
    0.2547    7.0816   -0.6203 H   0  0  0  0  0  0  0  0  0  0  0  0
   -1.6025    6.9061    1.8122 H   0  0  0  0  0  0  0  0  0  0  0  0
   -1.4395    8.3777    0.7923 H   0  0  0  0  0  0  0  0  0  0  0  0
    0.0150    8.4126    2.8077 H   0  0  0  0  0  0  0  0  0  0  0  0
    1.0572    7.1363    2.1860 H   0  0  0  0  0  0  0  0  0  0  0  0
    1.5743    8.3121    0.1224 H   0  0  0  0  0  0  0  0  0  0  0  0
    0.5336    9.6633    0.6381 H   0  0  0  0  0  0  0  0  0  0  0  0
    3.3122    9.0467    1.4930 H   0  0  0  0  0  0  0  0  0  0  0  0
    3.3088   11.0413    4.5294 H   0  0  0  0  0  0  0  0  0  0  0  0
    4.3048   10.0188    3.4910 H   0  0  0  0  0  0  0  0  0  0  0  0
    0.0735    4.7215   -0.5882 H   0  0  0  0  0  0  0  0  0  0  0  0
   -0.6331    2.7435    1.3068 H   0  0  0  0  0  0  0  0  0  0  0  0
    0.6255    2.8516   -0.6357 H   0  0  0  0  0  0  0  0  0  0  0  0
    3.3703    2.8233    0.3507 H   0  0  0  0  0  0  0  0  0  0  0  0
    2.6033    4.3490    0.8299 H   0  0  0  0  0  0  0  0  0  0  0  0
    2.6142    3.8994   -0.9254 H   0  0  0  0  0  0  0  0  0  0  0  0
    1.3534    0.7985   -0.5286 H   0  0  0  0  0  0  0  0  0  0  0  0
    0.8539    0.8122    1.2120 H   0  0  0  0  0  0  0  0  0  0  0  0
    2.5787    1.0890    0.7222 H   0  0  0  0  0  0  0  0  0  0  0  0
    1.8277    2.3607    2.8539 H   0  0  0  0  0  0  0  0  0  0  0  0
    0.5679    0.9106    4.9914 H   0  0  0  0  0  0  0  0  0  0  0  0
    1.6225    2.3507    5.2459 H   0  0  0  0  0  0  0  0  0  0  0  0
   -0.3709    3.4013    6.4625 H   0  0  0  0  0  0  0  0  0  0  0  0
   -1.2674    1.8708    6.2719 H   0  0  0  0  0  0  0  0  0  0  0  0
    1.4753    1.9621    7.6146 H   0  0  0  0  0  0  0  0  0  0  0  0
   -0.1213    2.0445    8.5091 H   0  0  0  0  0  0  0  0  0  0  0  0
    0.9240   -0.1913    6.6511 H   0  0  0  0  0  0  0  0  0  0  0  0
   -0.6784   -0.2410    7.5020 H   0  0  0  0  0  0  0  0  0  0  0  0
    0.4664   -0.1329    9.6484 H   0  0  0  0  0  0  0  0  0  0  0  0
    0.8495   -1.5679    8.6678 H   0  0  0  0  0  0  0  0  0  0  0  0
    5.6484   -0.8361    8.1225 H   0  0  0  0  0  0  0  0  0  0  0  0
    5.3646    1.2957    9.5659 H   0  0  0  0  0  0  0  0  0  0  0  0
  1  2  1  0
  2  3  1  0
  3  4  1  0
  3  5  1  0
  5  6  1  0
  6  7  1  0
  7  8  1  0
  8  9  2  0
  8 10  1  0
 10 11  1  0
 11 12  1  0
 12 13  1  0
 13 14  1  0
 14 15  1  0
 15 16  1  0
 16 17  1  0
 16 18  1  0
 18 19  2  0
 18 20  1  0
 20 21  1  0
 21 22  1  0
 21 23  1  0
 23 24  1  0
 24 25  2  0
 25 26  1  0
 26 27  2  0
 27 28  1  0
 28 29  2  0
 23 30  1  0
 15 31  1  0
 31 32  1  0
  6 33  1  0
 33 34  1  0
  5 35  1  0
 35 36  1  0
 35 37  1  0
 37 38  2  0
 37 39  1  0
 39 40  1  0
 40 41  1  0
 40 42  1  0
 39 43  1  0
 43 44  1  0
 44 45  2  0
 44 46  1  0
 46 47  1  0
 47 48  1  0
 47 49  1  0
 46 50  1  0
 50 51  1  0
 50 52  1  0
 52 53  2  0
 52 54  1  0
 54 55  1  0
 55 56  1  0
 56 57  1  0
 57 58  2  0
 58 59  1  0
 59 60  2  0
 60 61  1  0
 59 62  1  0
 62 63  1  0
 63 64  2  0
 63 65  1  0
 65 66  1  0
 66 67  1  0
 67 68  1  0
 68 69  1  0
 69 70  1  0
 70 71  2  0
 70 72  1  0
 65 73  1  0
 73 74  1  0
 74 75  2  0
 74 76  1  0
 76 77  1  0
 77 78  1  0
 77 79  1  0
 76 80  1  0
 80 81  1  0
 81 82  2  0
 81 83  1  0
 83 84  1  0
 84 85  1  0
 85 86  1  0
 86 87  1  0
 87 88  1  0
 88 89  1  0
 89 90  2  0
 89 91  1  0
 91 92  2  0
 92 93  1  0
 93 94  2  0
 14 10  1  0
 29 24  1  0
 61 56  2  0
 93 88  1  0
  1 95  1  0
  1 96  1  0
  1 97  1  0
  2 98  1  0
  2 99  1  0
  3100  1  1
  4101  1  0
  4102  1  0
  4103  1  0
  5104  1  6
  6105  1  6
  7106  1  0
  7107  1  0
 11108  1  0
 11109  1  0
 12110  1  0
 12111  1  0
 13112  1  0
 13113  1  0
 14114  1  6
 15115  1  6
 16116  1  6
 17117  1  0
 17118  1  0
 17119  1  0
 20120  1  0
 21121  1  6
 22122  1  0
 22123  1  0
 22124  1  0
 23125  1  6
 25126  1  0
 26127  1  0
 27128  1  0
 28129  1  0
 29130  1  0
 30131  1  0
 32132  1  0
 32133  1  0
 32134  1  0
 34135  1  0
 34136  1  0
 34137  1  0
 36138  1  0
 36139  1  0
 36140  1  0
 39141  1  1
 40142  1  0
 41143  1  0
 41144  1  0
 41145  1  0
 42146  1  0
 42147  1  0
 42148  1  0
 43149  1  0
 46150  1  6
 47151  1  0
 48152  1  0
 48153  1  0
 48154  1  0
 49155  1  0
 49156  1  0
 49157  1  0
 51158  1  0
 51159  1  0
 51160  1  0
 55161  1  0
 55162  1  0
 57163  1  0
 58164  1  0
 60165  1  0
 61166  1  0
 62167  1  0
 65168  1  6
 66169  1  0
 66170  1  0
 67171  1  0
 67172  1  0
 68173  1  0
 68174  1  0
 69175  1  0
 72176  1  0
 72177  1  0
 73178  1  0
 76179  1  6
 77180  1  0
 78181  1  0
 78182  1  0
 78183  1  0
 79184  1  0
 79185  1  0
 79186  1  0
 80187  1  0
 83188  1  0
 83189  1  0
 84190  1  0
 84191  1  0
 85192  1  0
 85193  1  0
 86194  1  0
 86195  1  0
 87196  1  0
 87197  1  0
 91198  1  0
 92199  1  0
M  END
$$$$

     RDKit          3D

199202  0  0  0  0  0  0  0  0999 V2000
   -4.3742    1.8236    2.7566 C   0  0  0  0  0  0  0  0  0  0  0  0
   -3.9901    0.4777    2.1980 C   0  0  0  0  0  0  0  0  0  0  0  0
   -3.1675    0.5791    0.9213 C   0  0  2  0  0  0  0  0  0  0  0  0
   -2.9150   -0.9103    0.5124 C   0  0  0  0  0  0  0  0  0  0  0  0
   -1.8695    1.2723    1.0299 C   0  0  1  0  0  0  0  0  0  0  0  0
   -0.7539    0.7067    1.7766 C   0  0  1  0  0  0  0  0  0  0  0  0
   -0.7484    0.1770    3.1244 C   0  0  0  0  0  0  0  0  0  0  0  0
   -1.0296    0.9293    4.3171 C   0  0  0  0  0  0  0  0  0  0  0  0
   -2.1536    0.9095    4.8697 O   0  0  0  0  0  0  0  0  0  0  0  0
   -0.0356    1.7378    4.9356 N   0  0  0  0  0  0  0  0  0  0  0  0
    1.3336    1.8198    4.3668 C   0  0  0  0  0  0  0  0  0  0  0  0
    2.1997    2.3365    5.5367 C   0  0  0  0  0  0  0  0  0  0  0  0
    1.2101    3.4546    5.9675 C   0  0  0  0  0  0  0  0  0  0  0  0
   -0.0040    2.5772    6.0976 C   0  0  1  0  0  0  0  0  0  0  0  0
   -1.2441    3.1991    6.5837 C   0  0  1  0  0  0  0  0  0  0  0  0
   -1.9207    4.1907    5.7072 C   0  0  1  0  0  0  0  0  0  0  0  0
   -3.1972    4.6072    6.4826 C   0  0  0  0  0  0  0  0  0  0  0  0
   -1.1990    5.5056    5.5921 C   0  0  0  0  0  0  0  0  0  0  0  0
   -0.2771    5.8531    6.3418 O   0  0  0  0  0  0  0  0  0  0  0  0
   -1.6273    6.3956    4.5328 N   0  0  0  0  0  0  0  0  0  0  0  0
   -0.9634    7.6710    4.3701 C   0  0  2  0  0  0  0  0  0  0  0  0
   -1.9299    8.8188    4.5767 C   0  0  0  0  0  0  0  0  0  0  0  0
   -0.1139    7.8074    3.1682 C   0  0  1  0  0  0  0  0  0  0  0  0
   -0.6995    7.5040    1.8666 C   0  0  0  0  0  0  0  0  0  0  0  0
   -2.0161    7.3899    1.5557 C   0  0  0  0  0  0  0  0  0  0  0  0
   -2.4543    7.0673    0.2703 C   0  0  0  0  0  0  0  0  0  0  0  0
   -1.5604    6.8455   -0.7638 C   0  0  0  0  0  0  0  0  0  0  0  0
   -0.2135    6.9604   -0.4533 C   0  0  0  0  0  0  0  0  0  0  0  0
    0.2060    7.2782    0.8138 C   0  0  0  0  0  0  0  0  0  0  0  0
    0.5339    9.0384    3.1197 O   0  0  0  0  0  0  0  0  0  0  0  0
   -2.1592    2.2266    6.9502 O   0  0  0  0  0  0  0  0  0  0  0  0
   -2.4357    2.1417    8.2875 C   0  0  0  0  0  0  0  0  0  0  0  0
    0.0570   -0.1068    0.9179 O   0  0  0  0  0  0  0  0  0  0  0  0
    1.3059    0.5236    0.7552 C   0  0  0  0  0  0  0  0  0  0  0  0
   -1.5053    2.1304   -0.0598 N   0  0  0  0  0  0  0  0  0  0  0  0
   -1.5629    3.6077    0.3132 C   0  0  0  0  0  0  0  0  0  0  0  0
   -1.1274    1.9293   -1.3692 C   0  0  0  0  0  0  0  0  0  0  0  0
   -0.7558    3.0006   -2.0341 O   0  0  0  0  0  0  0  0  0  0  0  0
   -1.0474    0.7223   -2.2226 C   0  0  1  0  0  0  0  0  0  0  0  0
   -2.3774    0.2734   -2.7336 C   0  0  0  0  0  0  0  0  0  0  0  0
   -3.0190    1.3827   -3.6008 C   0  0  0  0  0  0  0  0  0  0  0  0
   -2.2259   -0.9129   -3.6672 C   0  0  0  0  0  0  0  0  0  0  0  0
   -0.2369    1.0312   -3.4337 N   0  0  0  0  0  0  0  0  0  0  0  0
    1.0649    1.5187   -3.4203 C   0  0  0  0  0  0  0  0  0  0  0  0
    1.6400    1.7630   -2.3338 O   0  0  0  0  0  0  0  0  0  0  0  0
    1.7897    1.7540   -4.6636 C   0  0  1  0  0  0  0  0  0  0  0  0
    1.1245    1.4625   -5.9583 C   0  0  0  0  0  0  0  0  0  0  0  0
   -0.1015    2.2118   -6.3047 C   0  0  0  0  0  0  0  0  0  0  0  0
    0.9697   -0.0552   -6.1412 C   0  0  0  0  0  0  0  0  0  0  0  0
    2.6473    2.8872   -4.7589 N   0  0  0  0  0  0  0  0  0  0  0  0
    2.0720    4.2192   -4.9379 C   0  0  0  0  0  0  0  0  0  0  0  0
    4.0924    2.8067   -4.6820 C   0  0  0  0  0  0  0  0  0  0  0  0
    4.8214    3.8058   -4.9089 O   0  0  0  0  0  0  0  0  0  0  0  0
    4.6091    1.6028   -4.3450 O   0  0  0  0  0  0  0  0  0  0  0  0
    6.0335    1.4328   -4.2574 C   0  0  0  0  0  0  0  0  0  0  0  0
    6.1699    0.0385   -3.6847 C   0  0  0  0  0  0  0  0  0  0  0  0
    6.1939    0.0496   -2.2794 C   0  0  0  0  0  0  0  0  0  0  0  0
    6.2480   -1.1571   -1.6516 C   0  0  0  0  0  0  0  0  0  0  0  0
    6.2778   -2.3391   -2.4127 C   0  0  0  0  0  0  0  0  0  0  0  0
    6.2579   -2.3469   -3.7726 C   0  0  0  0  0  0  0  0  0  0  0  0
    6.2019   -1.1045   -4.4173 C   0  0  0  0  0  0  0  0  0  0  0  0
    6.2392   -3.5184   -1.5807 N   0  0  0  0  0  0  0  0  0  0  0  0
    4.9374   -3.9972   -1.3341 C   0  0  0  0  0  0  0  0  0  0  0  0
    3.9933   -3.3446   -1.9230 O   0  0  0  0  0  0  0  0  0  0  0  0
    4.5303   -5.1152   -0.5034 C   0  0  1  0  0  0  0  0  0  0  0  0
    4.5684   -4.6961    0.9941 C   0  0  0  0  0  0  0  0  0  0  0  0
    5.9021   -4.2635    1.4554 C   0  0  0  0  0  0  0  0  0  0  0  0
    5.8848   -3.8363    2.9323 C   0  0  0  0  0  0  0  0  0  0  0  0
    4.9698   -2.7188    3.0400 N   0  0  0  0  0  0  0  0  0  0  0  0
    4.7364   -2.0892    4.3012 C   0  0  0  0  0  0  0  0  0  0  0  0
    5.3036   -2.4727    5.3600 O   0  0  0  0  0  0  0  0  0  0  0  0
    3.8413   -0.9773    4.4466 N   0  0  0  0  0  0  0  0  0  0  0  0
    3.1051   -5.4160   -0.6927 N   0  0  0  0  0  0  0  0  0  0  0  0
    2.4895   -6.6302   -0.3913 C   0  0  0  0  0  0  0  0  0  0  0  0
    3.1440   -7.5945    0.1029 O   0  0  0  0  0  0  0  0  0  0  0  0
    1.0224   -6.7887   -0.6566 C   0  0  1  0  0  0  0  0  0  0  0  0
    0.2757   -6.8895    0.6850 C   0  0  0  0  0  0  0  0  0  0  0  0
   -1.1925   -7.0493    0.3341 C   0  0  0  0  0  0  0  0  0  0  0  0
    0.7257   -8.1598    1.3340 C   0  0  0  0  0  0  0  0  0  0  0  0
    0.4741   -5.7141   -1.4484 N   0  0  0  0  0  0  0  0  0  0  0  0
   -0.3452   -6.0890   -2.5599 C   0  0  0  0  0  0  0  0  0  0  0  0
   -0.5704   -7.3146   -2.7753 O   0  0  0  0  0  0  0  0  0  0  0  0
   -0.9430   -5.1163   -3.4781 C   0  0  0  0  0  0  0  0  0  0  0  0
   -2.0014   -5.7076   -4.3882 C   0  0  0  0  0  0  0  0  0  0  0  0
   -2.4369   -4.5859   -5.3051 C   0  0  0  0  0  0  0  0  0  0  0  0
   -3.5470   -4.9904   -6.2505 C   0  0  0  0  0  0  0  0  0  0  0  0
   -3.8247   -3.7769   -7.1267 C   0  0  0  0  0  0  0  0  0  0  0  0
   -4.8878   -3.9838   -8.0710 N   0  0  0  0  0  0  0  0  0  0  0  0
   -6.2617   -3.6541   -7.7659 C   0  0  0  0  0  0  0  0  0  0  0  0
   -6.6994   -3.1586   -6.6752 O   0  0  0  0  0  0  0  0  0  0  0  0
   -7.0275   -4.0091   -8.9640 C   0  0  0  0  0  0  0  0  0  0  0  0
   -6.2222   -4.4977   -9.8934 C   0  0  0  0  0  0  0  0  0  0  0  0
   -4.8534   -4.5119   -9.3995 C   0  0  0  0  0  0  0  0  0  0  0  0
   -3.8331   -4.9046  -10.0003 O   0  0  0  0  0  0  0  0  0  0  0  0
   -3.5808    2.3911    3.2311 H   0  0  0  0  0  0  0  0  0  0  0  0
   -5.2899    1.7613    3.3910 H   0  0  0  0  0  0  0  0  0  0  0  0
   -4.6604    2.4358    1.8423 H   0  0  0  0  0  0  0  0  0  0  0  0
   -3.5588   -0.1277    2.9828 H   0  0  0  0  0  0  0  0  0  0  0  0
   -4.9767    0.0267    1.8446 H   0  0  0  0  0  0  0  0  0  0  0  0
   -3.7724    0.9769    0.1408 H   0  0  0  0  0  0  0  0  0  0  0  0
   -2.8005   -1.5569    1.3920 H   0  0  0  0  0  0  0  0  0  0  0  0
   -2.0170   -0.9932   -0.1018 H   0  0  0  0  0  0  0  0  0  0  0  0
   -3.7950   -1.2150   -0.0598 H   0  0  0  0  0  0  0  0  0  0  0  0
   -2.1843    2.1262    1.8503 H   0  0  0  0  0  0  0  0  0  0  0  0
   -0.0051    1.6195    1.8644 H   0  0  0  0  0  0  0  0  0  0  0  0
   -1.3348   -0.8012    3.2356 H   0  0  0  0  0  0  0  0  0  0  0  0
    0.3153   -0.2338    3.2878 H   0  0  0  0  0  0  0  0  0  0  0  0
    1.3877    2.6043    3.5971 H   0  0  0  0  0  0  0  0  0  0  0  0
    1.7602    0.8565    4.1222 H   0  0  0  0  0  0  0  0  0  0  0  0
    3.1335    2.7464    5.1615 H   0  0  0  0  0  0  0  0  0  0  0  0
    2.2469    1.5614    6.2922 H   0  0  0  0  0  0  0  0  0  0  0  0
    1.5284    3.8507    6.9164 H   0  0  0  0  0  0  0  0  0  0  0  0
    1.2255    4.1203    5.0954 H   0  0  0  0  0  0  0  0  0  0  0  0
    0.3064    1.8717    6.9545 H   0  0  0  0  0  0  0  0  0  0  0  0
   -0.9758    3.7015    7.5556 H   0  0  0  0  0  0  0  0  0  0  0  0
   -2.2451    3.8175    4.7547 H   0  0  0  0  0  0  0  0  0  0  0  0
   -3.8697    3.7753    6.6527 H   0  0  0  0  0  0  0  0  0  0  0  0
   -2.8187    4.9765    7.4535 H   0  0  0  0  0  0  0  0  0  0  0  0
   -3.6783    5.4888    5.9992 H   0  0  0  0  0  0  0  0  0  0  0  0
   -2.4047    6.0381    3.9523 H   0  0  0  0  0  0  0  0  0  0  0  0
   -0.2501    7.7279    5.2525 H   0  0  0  0  0  0  0  0  0  0  0  0
   -1.6976    9.4211    5.4900 H   0  0  0  0  0  0  0  0  0  0  0  0
   -2.9756    8.4672    4.7457 H   0  0  0  0  0  0  0  0  0  0  0  0
   -1.8661    9.5270    3.7260 H   0  0  0  0  0  0  0  0  0  0  0  0
    0.7319    7.0623    3.2999 H   0  0  0  0  0  0  0  0  0  0  0  0
   -2.7673    7.5631    2.2839 H   0  0  0  0  0  0  0  0  0  0  0  0
   -3.5011    6.9848    0.0442 H   0  0  0  0  0  0  0  0  0  0  0  0
   -1.8662    6.5980   -1.7675 H   0  0  0  0  0  0  0  0  0  0  0  0
    0.5264    6.7954   -1.2418 H   0  0  0  0  0  0  0  0  0  0  0  0
    1.2768    7.3493    0.9737 H   0  0  0  0  0  0  0  0  0  0  0  0
    0.4311    9.4017    2.2093 H   0  0  0  0  0  0  0  0  0  0  0  0
   -1.4939    1.9080    8.8648 H   0  0  0  0  0  0  0  0  0  0  0  0
   -2.9957    2.9614    8.7252 H   0  0  0  0  0  0  0  0  0  0  0  0
   -3.0581    1.2083    8.4255 H   0  0  0  0  0  0  0  0  0  0  0  0
    1.8756   -0.1180    0.0553 H   0  0  0  0  0  0  0  0  0  0  0  0
    1.1348    1.4915    0.2949 H   0  0  0  0  0  0  0  0  0  0  0  0
    1.8305    0.5985    1.7450 H   0  0  0  0  0  0  0  0  0  0  0  0
   -2.5353    3.9892   -0.0197 H   0  0  0  0  0  0  0  0  0  0  0  0
   -0.7375    4.0640   -0.2517 H   0  0  0  0  0  0  0  0  0  0  0  0
   -1.3450    3.7392    1.3666 H   0  0  0  0  0  0  0  0  0  0  0  0
   -0.4856    0.0048   -1.6621 H   0  0  0  0  0  0  0  0  0  0  0  0
   -3.0928    0.0240   -1.9466 H   0  0  0  0  0  0  0  0  0  0  0  0
   -4.1205    1.1518   -3.6362 H   0  0  0  0  0  0  0  0  0  0  0  0
   -2.9248    2.3691   -3.1458 H   0  0  0  0  0  0  0  0  0  0  0  0
   -2.6410    1.2414   -4.6044 H   0  0  0  0  0  0  0  0  0  0  0  0
   -2.2238   -0.6294   -4.7412 H   0  0  0  0  0  0  0  0  0  0  0  0
   -3.0448   -1.6483   -3.5223 H   0  0  0  0  0  0  0  0  0  0  0  0
   -1.2568   -1.4236   -3.4899 H   0  0  0  0  0  0  0  0  0  0  0  0
   -0.6750    0.8494   -4.3833 H   0  0  0  0  0  0  0  0  0  0  0  0
    2.5660    0.8770   -4.5964 H   0  0  0  0  0  0  0  0  0  0  0  0
    1.9003    1.7421   -6.7375 H   0  0  0  0  0  0  0  0  0  0  0  0
   -0.5349    2.8717   -5.5587 H   0  0  0  0  0  0  0  0  0  0  0  0
    0.0418    2.8824   -7.2138 H   0  0  0  0  0  0  0  0  0  0  0  0
   -0.8885    1.4992   -6.6552 H   0  0  0  0  0  0  0  0  0  0  0  0
   -0.0368   -0.3460   -6.4742 H   0  0  0  0  0  0  0  0  0  0  0  0
    1.6932   -0.4706   -6.8734 H   0  0  0  0  0  0  0  0  0  0  0  0
    1.2691   -0.5133   -5.1706 H   0  0  0  0  0  0  0  0  0  0  0  0
    1.9590    4.4539   -6.0314 H   0  0  0  0  0  0  0  0  0  0  0  0
    1.1250    4.3483   -4.3760 H   0  0  0  0  0  0  0  0  0  0  0  0
    2.7315    5.0239   -4.5360 H   0  0  0  0  0  0  0  0  0  0  0  0
    6.4653    2.1977   -3.6081 H   0  0  0  0  0  0  0  0  0  0  0  0
    6.5053    1.4725   -5.2628 H   0  0  0  0  0  0  0  0  0  0  0  0
    6.1720    0.9572   -1.7034 H   0  0  0  0  0  0  0  0  0  0  0  0
    6.2632   -1.1776   -0.5696 H   0  0  0  0  0  0  0  0  0  0  0  0
    6.2866   -3.2768   -4.3144 H   0  0  0  0  0  0  0  0  0  0  0  0
    6.1794   -1.0441   -5.4872 H   0  0  0  0  0  0  0  0  0  0  0  0
    7.0526   -3.9979   -1.1865 H   0  0  0  0  0  0  0  0  0  0  0  0
    5.1458   -5.9939   -0.5428 H   0  0  0  0  0  0  0  0  0  0  0  0
    4.2223   -5.5495    1.6101 H   0  0  0  0  0  0  0  0  0  0  0  0
    3.8341   -3.8797    1.1337 H   0  0  0  0  0  0  0  0  0  0  0  0
    6.7050   -4.9866    1.3568 H   0  0  0  0  0  0  0  0  0  0  0  0
    6.2279   -3.3076    0.9377 H   0  0  0  0  0  0  0  0  0  0  0  0
    6.8849   -3.4418    3.1759 H   0  0  0  0  0  0  0  0  0  0  0  0
    5.5833   -4.6857    3.5810 H   0  0  0  0  0  0  0  0  0  0  0  0
    4.4424   -2.3130    2.2314 H   0  0  0  0  0  0  0  0  0  0  0  0
    4.1588    0.0106    4.4797 H   0  0  0  0  0  0  0  0  0  0  0  0
    2.8193   -1.2536    4.5186 H   0  0  0  0  0  0  0  0  0  0  0  0
    2.5547   -4.6097   -1.0919 H   0  0  0  0  0  0  0  0  0  0  0  0
    0.8413   -7.7661   -1.1347 H   0  0  0  0  0  0  0  0  0  0  0  0
    0.4152   -5.9902    1.2852 H   0  0  0  0  0  0  0  0  0  0  0  0
   -1.5352   -6.2322   -0.3492 H   0  0  0  0  0  0  0  0  0  0  0  0
   -1.4144   -8.0136   -0.1469 H   0  0  0  0  0  0  0  0  0  0  0  0
   -1.8466   -6.9924    1.2395 H   0  0  0  0  0  0  0  0  0  0  0  0
    0.9837   -8.9313    0.5721 H   0  0  0  0  0  0  0  0  0  0  0  0
   -0.0534   -8.5716    2.0179 H   0  0  0  0  0  0  0  0  0  0  0  0
    1.6375   -8.0050    1.9479 H   0  0  0  0  0  0  0  0  0  0  0  0
    0.6074   -4.7066   -1.2914 H   0  0  0  0  0  0  0  0  0  0  0  0
   -0.1469   -4.7067   -4.1692 H   0  0  0  0  0  0  0  0  0  0  0  0
   -1.4033   -4.2488   -2.9833 H   0  0  0  0  0  0  0  0  0  0  0  0
   -1.5351   -6.5294   -4.9577 H   0  0  0  0  0  0  0  0  0  0  0  0
   -2.8693   -6.0524   -3.7879 H   0  0  0  0  0  0  0  0  0  0  0  0
   -2.6269   -3.6336   -4.7829 H   0  0  0  0  0  0  0  0  0  0  0  0
   -1.5251   -4.3837   -5.9498 H   0  0  0  0  0  0  0  0  0  0  0  0
   -4.4687   -5.2636   -5.6880 H   0  0  0  0  0  0  0  0  0  0  0  0
   -3.2404   -5.8108   -6.9075 H   0  0  0  0  0  0  0  0  0  0  0  0
   -2.8753   -3.5863   -7.7012 H   0  0  0  0  0  0  0  0  0  0  0  0
   -3.9676   -2.9009   -6.4672 H   0  0  0  0  0  0  0  0  0  0  0  0
   -8.1084   -3.8532   -8.9939 H   0  0  0  0  0  0  0  0  0  0  0  0
   -6.5016   -4.8398  -10.8754 H   0  0  0  0  0  0  0  0  0  0  0  0
  1  2  1  0
  2  3  1  0
  3  4  1  0
  3  5  1  0
  5  6  1  0
  6  7  1  0
  7  8  1  0
  8  9  2  0
  8 10  1  0
 10 11  1  0
 11 12  1  0
 12 13  1  0
 13 14  1  0
 14 15  1  0
 15 16  1  0
 16 17  1  0
 16 18  1  0
 18 19  2  0
 18 20  1  0
 20 21  1  0
 21 22  1  0
 21 23  1  0
 23 24  1  0
 24 25  2  0
 25 26  1  0
 26 27  2  0
 27 28  1  0
 28 29  2  0
 23 30  1  0
 15 31  1  0
 31 32  1  0
  6 33  1  0
 33 34  1  0
  5 35  1  0
 35 36  1  0
 35 37  1  0
 37 38  2  0
 37 39  1  0
 39 40  1  0
 40 41  1  0
 40 42  1  0
 39 43  1  0
 43 44  1  0
 44 45  2  0
 44 46  1  0
 46 47  1  0
 47 48  1  0
 47 49  1  0
 46 50  1  0
 50 51  1  0
 50 52  1  0
 52 53  2  0
 52 54  1  0
 54 55  1  0
 55 56  1  0
 56 57  1  0
 57 58  2  0
 58 59  1  0
 59 60  2  0
 60 61  1  0
 59 62  1  0
 62 63  1  0
 63 64  2  0
 63 65  1  0
 65 66  1  0
 66 67  1  0
 67 68  1  0
 68 69  1  0
 69 70  1  0
 70 71  2  0
 70 72  1  0
 65 73  1  0
 73 74  1  0
 74 75  2  0
 74 76  1  0
 76 77  1  0
 77 78  1  0
 77 79  1  0
 76 80  1  0
 80 81  1  0
 81 82  2  0
 81 83  1  0
 83 84  1  0
 84 85  1  0
 85 86  1  0
 86 87  1  0
 87 88  1  0
 88 89  1  0
 89 90  2  0
 89 91  1  0
 91 92  2  0
 92 93  1  0
 93 94  2  0
 14 10  1  0
 29 24  1  0
 61 56  2  0
 93 88  1  0
  1 95  1  0
  1 96  1  0
  1 97  1  0
  2 98  1  0
  2 99  1  0
  3100  1  6
  4101  1  0
  4102  1  0
  4103  1  0
  5104  1  1
  6105  1  1
  7106  1  0
  7107  1  0
 11108  1  0
 11109  1  0
 12110  1  0
 12111  1  0
 13112  1  0
 13113  1  0
 14114  1  1
 15115  1  1
 16116  1  6
 17117  1  0
 17118  1  0
 17119  1  0
 20120  1  0
 21121  1  1
 22122  1  0
 22123  1  0
 22124  1  0
 23125  1  1
 25126  1  0
 26127  1  0
 27128  1  0
 28129  1  0
 29130  1  0
 30131  1  0
 32132  1  0
 32133  1  0
 32134  1  0
 34135  1  0
 34136  1  0
 34137  1  0
 36138  1  0
 36139  1  0
 36140  1  0
 39141  1  1
 40142  1  0
 41143  1  0
 41144  1  0
 41145  1  0
 42146  1  0
 42147  1  0
 42148  1  0
 43149  1  0
 46150  1  1
 47151  1  0
 48152  1  0
 48153  1  0
 48154  1  0
 49155  1  0
 49156  1  0
 49157  1  0
 51158  1  0
 51159  1  0
 51160  1  0
 55161  1  0
 55162  1  0
 57163  1  0
 58164  1  0
 60165  1  0
 61166  1  0
 62167  1  0
 65168  1  1
 66169  1  0
 66170  1  0
 67171  1  0
 67172  1  0
 68173  1  0
 68174  1  0
 69175  1  0
 72176  1  0
 72177  1  0
 73178  1  0
 76179  1  6
 77180  1  0
 78181  1  0
 78182  1  0
 78183  1  0
 79184  1  0
 79185  1  0
 79186  1  0
 80187  1  0
 83188  1  0
 83189  1  0
 84190  1  0
 84191  1  0
 85192  1  0
 85193  1  0
 86194  1  0
 86195  1  0
 87196  1  0
 87197  1  0
 91198  1  0
 92199  1  0
M  END
$$$$

     RDKit          3D

199202  0  0  0  0  0  0  0  0999 V2000
    8.1813    1.4769    3.3205 C   0  0  0  0  0  0  0  0  0  0  0  0
    7.2775    2.4542    4.0742 C   0  0  0  0  0  0  0  0  0  0  0  0
    6.0945    1.8541    4.6876 C   0  0  2  0  0  0  0  0  0  0  0  0
    6.4318    0.7625    5.6420 C   0  0  0  0  0  0  0  0  0  0  0  0
    4.7797    1.7172    3.9554 C   0  0  1  0  0  0  0  0  0  0  0  0
    4.2053    3.0186    3.5789 C   0  0  1  0  0  0  0  0  0  0  0  0
    2.7768    3.0346    3.0935 C   0  0  0  0  0  0  0  0  0  0  0  0
    1.7659    2.5383    4.0177 C   0  0  0  0  0  0  0  0  0  0  0  0
    1.9631    1.8126    5.0241 O   0  0  0  0  0  0  0  0  0  0  0  0
    0.3989    2.9061    3.7784 N   0  0  0  0  0  0  0  0  0  0  0  0
   -0.1730    3.7537    2.7594 C   0  0  0  0  0  0  0  0  0  0  0  0
   -1.2486    4.5740    3.4386 C   0  0  0  0  0  0  0  0  0  0  0  0
   -1.4736    3.8781    4.7491 C   0  0  0  0  0  0  0  0  0  0  0  0
   -0.7758    2.5035    4.5874 C   0  0  1  0  0  0  0  0  0  0  0  0
   -1.7298    1.6101    3.8858 C   0  0  1  0  0  0  0  0  0  0  0  0
   -1.1077    0.5382    3.0128 C   0  0  1  0  0  0  0  0  0  0  0  0
   -0.2045   -0.3818    3.7866 C   0  0  0  0  0  0  0  0  0  0  0  0
   -2.2112   -0.3526    2.4698 C   0  0  0  0  0  0  0  0  0  0  0  0
   -2.5100   -0.3153    1.2335 O   0  0  0  0  0  0  0  0  0  0  0  0
   -2.8842   -1.2188    3.3837 N   0  0  0  0  0  0  0  0  0  0  0  0
   -3.9414   -2.0522    2.7986 C   0  0  2  0  0  0  0  0  0  0  0  0
   -5.0999   -2.2592    3.7039 C   0  0  0  0  0  0  0  0  0  0  0  0
   -3.2019   -3.3666    2.4602 C   0  0  1  0  0  0  0  0  0  0  0  0
   -4.0798   -4.3060    1.7095 C   0  0  0  0  0  0  0  0  0  0  0  0
   -4.5486   -3.8603    0.4813 C   0  0  0  0  0  0  0  0  0  0  0  0
   -5.3658   -4.6723   -0.3057 C   0  0  0  0  0  0  0  0  0  0  0  0
   -5.6907   -5.9335    0.1787 C   0  0  0  0  0  0  0  0  0  0  0  0
   -5.2153   -6.3775    1.4187 C   0  0  0  0  0  0  0  0  0  0  0  0
   -4.4002   -5.5615    2.1998 C   0  0  0  0  0  0  0  0  0  0  0  0
   -2.1977   -2.9217    1.5648 O   0  0  0  0  0  0  0  0  0  0  0  0
   -2.8114    1.1724    4.5906 O   0  0  0  0  0  0  0  0  0  0  0  0
   -4.0571    1.5402    4.2031 C   0  0  0  0  0  0  0  0  0  0  0  0
    4.1982    3.8143    4.7381 O   0  0  0  0  0  0  0  0  0  0  0  0
    4.7796    5.0369    4.6198 C   0  0  0  0  0  0  0  0  0  0  0  0
    4.8253    0.6973    2.9272 N   0  0  0  0  0  0  0  0  0  0  0  0
    4.2110   -0.6021    3.2834 C   0  0  0  0  0  0  0  0  0  0  0  0
    5.4004    0.8483    1.6500 C   0  0  0  0  0  0  0  0  0  0  0  0
    5.8157    2.0370    1.3684 O   0  0  0  0  0  0  0  0  0  0  0  0
    5.5841   -0.1584    0.6193 C   0  0  1  0  0  0  0  0  0  0  0  0
    4.5914   -1.1799    0.3236 C   0  0  0  0  0  0  0  0  0  0  0  0
    5.1807   -2.0183   -0.8485 C   0  0  0  0  0  0  0  0  0  0  0  0
    3.2563   -0.7337   -0.1972 C   0  0  0  0  0  0  0  0  0  0  0  0
    6.0499    0.4369   -0.6237 N   0  0  0  0  0  0  0  0  0  0  0  0
    5.4001    1.5083   -1.2390 C   0  0  0  0  0  0  0  0  0  0  0  0
    4.3459    1.9712   -0.6619 O   0  0  0  0  0  0  0  0  0  0  0  0
    5.7690    2.1882   -2.4888 C   0  0  1  0  0  0  0  0  0  0  0  0
    5.6535    3.6905   -2.3681 C   0  0  0  0  0  0  0  0  0  0  0  0
    4.2485    4.1338   -2.0413 C   0  0  0  0  0  0  0  0  0  0  0  0
    6.1507    4.3850   -3.6202 C   0  0  0  0  0  0  0  0  0  0  0  0
    6.9628    1.7780   -3.1493 N   0  0  0  0  0  0  0  0  0  0  0  0
    8.3040    2.0025   -2.6384 C   0  0  0  0  0  0  0  0  0  0  0  0
    6.8478    1.0810   -4.4203 C   0  0  0  0  0  0  0  0  0  0  0  0
    7.8475    0.8243   -5.1298 O   0  0  0  0  0  0  0  0  0  0  0  0
    5.6253    0.7103   -4.8169 O   0  0  0  0  0  0  0  0  0  0  0  0
    5.1150    0.0758   -5.9460 C   0  0  0  0  0  0  0  0  0  0  0  0
    3.6640   -0.1640   -5.5997 C   0  0  0  0  0  0  0  0  0  0  0  0
    3.4138   -1.4532   -5.1131 C   0  0  0  0  0  0  0  0  0  0  0  0
    2.1641   -1.8056   -4.6650 C   0  0  0  0  0  0  0  0  0  0  0  0
    1.1676   -0.8590   -4.7068 C   0  0  0  0  0  0  0  0  0  0  0  0
    1.4262    0.4260   -5.1980 C   0  0  0  0  0  0  0  0  0  0  0  0
    2.6940    0.7881   -5.6546 C   0  0  0  0  0  0  0  0  0  0  0  0
   -0.1051   -1.2165   -4.2360 N   0  0  0  0  0  0  0  0  0  0  0  0
   -0.6555   -2.5207   -4.2176 C   0  0  0  0  0  0  0  0  0  0  0  0
   -0.0352   -3.5041   -4.6714 O   0  0  0  0  0  0  0  0  0  0  0  0
   -2.0144   -2.7941   -3.6468 C   0  0  1  0  0  0  0  0  0  0  0  0
   -1.8524   -3.6826   -2.4353 C   0  0  0  0  0  0  0  0  0  0  0  0
   -1.2331   -5.0087   -2.6571 C   0  0  0  0  0  0  0  0  0  0  0  0
   -1.1248   -5.8076   -1.3410 C   0  0  0  0  0  0  0  0  0  0  0  0
   -0.2702   -5.0446   -0.4217 N   0  0  0  0  0  0  0  0  0  0  0  0
    0.0398   -5.4962    0.8778 C   0  0  0  0  0  0  0  0  0  0  0  0
   -0.4118   -6.5869    1.3103 O   0  0  0  0  0  0  0  0  0  0  0  0
    0.8914   -4.6708    1.6996 N   0  0  0  0  0  0  0  0  0  0  0  0
   -2.5153   -1.5354   -3.1276 N   0  0  0  0  0  0  0  0  0  0  0  0
   -3.6788   -0.8799   -3.5602 C   0  0  0  0  0  0  0  0  0  0  0  0
   -4.4309   -1.3142   -4.4742 O   0  0  0  0  0  0  0  0  0  0  0  0
   -4.0138    0.4076   -2.8678 C   0  0  1  0  0  0  0  0  0  0  0  0
   -2.8815    1.3765   -2.8882 C   0  0  0  0  0  0  0  0  0  0  0  0
   -2.5596    1.6815   -4.3392 C   0  0  0  0  0  0  0  0  0  0  0  0
   -3.2630    2.6628   -2.2079 C   0  0  0  0  0  0  0  0  0  0  0  0
   -5.2086    1.0245   -3.3667 N   0  0  0  0  0  0  0  0  0  0  0  0
   -6.4379    1.1020   -2.6445 C   0  0  0  0  0  0  0  0  0  0  0  0
   -6.4782    0.5895   -1.5008 O   0  0  0  0  0  0  0  0  0  0  0  0
   -7.5638    1.7858   -3.3085 C   0  0  0  0  0  0  0  0  0  0  0  0
   -8.8346    1.7725   -2.5056 C   0  0  0  0  0  0  0  0  0  0  0  0
   -9.3415    0.3862   -2.2650 C   0  0  0  0  0  0  0  0  0  0  0  0
  -10.6280    0.5023   -1.4490 C   0  0  0  0  0  0  0  0  0  0  0  0
  -11.2550   -0.8132   -1.1573 C   0  0  0  0  0  0  0  0  0  0  0  0
  -10.4510   -1.7384   -0.4144 N   0  0  0  0  0  0  0  0  0  0  0  0
   -9.5791   -2.6870   -1.0161 C   0  0  0  0  0  0  0  0  0  0  0  0
   -9.3982   -2.8363   -2.2693 O   0  0  0  0  0  0  0  0  0  0  0  0
   -8.9364   -3.4501    0.0556 C   0  0  0  0  0  0  0  0  0  0  0  0
   -9.3751   -3.0069    1.2335 C   0  0  0  0  0  0  0  0  0  0  0  0
  -10.3324   -1.9273    0.9933 C   0  0  0  0  0  0  0  0  0  0  0  0
  -10.9348   -1.2872    1.8709 O   0  0  0  0  0  0  0  0  0  0  0  0
    7.7491    0.4612    3.2617 H   0  0  0  0  0  0  0  0  0  0  0  0
    8.3620    1.8146    2.2839 H   0  0  0  0  0  0  0  0  0  0  0  0
    9.2190    1.4443    3.7684 H   0  0  0  0  0  0  0  0  0  0  0  0
    7.1210    3.2822    3.3527 H   0  0  0  0  0  0  0  0  0  0  0  0
    7.9738    2.9359    4.8341 H   0  0  0  0  0  0  0  0  0  0  0  0
    5.7879    2.7089    5.4664 H   0  0  0  0  0  0  0  0  0  0  0  0
    5.5661    0.4905    6.2981 H   0  0  0  0  0  0  0  0  0  0  0  0
    7.1732    1.2025    6.3790 H   0  0  0  0  0  0  0  0  0  0  0  0
    6.9597   -0.0991    5.2102 H   0  0  0  0  0  0  0  0  0  0  0  0
    4.1130    1.2778    4.7824 H   0  0  0  0  0  0  0  0  0  0  0  0
    4.7701    3.5512    2.7651 H   0  0  0  0  0  0  0  0  0  0  0  0
    2.7417    2.3350    2.1972 H   0  0  0  0  0  0  0  0  0  0  0  0
    2.5147    4.0175    2.6365 H   0  0  0  0  0  0  0  0  0  0  0  0
    0.5663    4.5008    2.3835 H   0  0  0  0  0  0  0  0  0  0  0  0
   -0.6070    3.2539    1.9013 H   0  0  0  0  0  0  0  0  0  0  0  0
   -0.9656    5.6412    3.5722 H   0  0  0  0  0  0  0  0  0  0  0  0
   -2.1548    4.6046    2.7964 H   0  0  0  0  0  0  0  0  0  0  0  0
   -2.5278    3.8066    4.9495 H   0  0  0  0  0  0  0  0  0  0  0  0
   -0.9531    4.4186    5.5951 H   0  0  0  0  0  0  0  0  0  0  0  0
   -0.3706    2.1414    5.5438 H   0  0  0  0  0  0  0  0  0  0  0  0
   -2.2044    2.2960    3.0818 H   0  0  0  0  0  0  0  0  0  0  0  0
   -0.5609    0.9559    2.1787 H   0  0  0  0  0  0  0  0  0  0  0  0
   -0.4260   -0.3715    4.8742 H   0  0  0  0  0  0  0  0  0  0  0  0
    0.8693   -0.2159    3.5480 H   0  0  0  0  0  0  0  0  0  0  0  0
   -0.4088   -1.4197    3.4616 H   0  0  0  0  0  0  0  0  0  0  0  0
   -2.6665   -1.2783    4.3993 H   0  0  0  0  0  0  0  0  0  0  0  0
   -4.2359   -1.6664    1.8020 H   0  0  0  0  0  0  0  0  0  0  0  0
   -5.0514   -3.2101    4.2760 H   0  0  0  0  0  0  0  0  0  0  0  0
   -6.0208   -2.3141    3.1064 H   0  0  0  0  0  0  0  0  0  0  0  0
   -5.1935   -1.3821    4.3782 H   0  0  0  0  0  0  0  0  0  0  0  0
   -2.7533   -3.7634    3.3592 H   0  0  0  0  0  0  0  0  0  0  0  0
   -4.3240   -2.8953    0.0685 H   0  0  0  0  0  0  0  0  0  0  0  0
   -5.7397   -4.3389   -1.2685 H   0  0  0  0  0  0  0  0  0  0  0  0
   -6.3207   -6.5476   -0.4411 H   0  0  0  0  0  0  0  0  0  0  0  0
   -5.5131   -7.3708    1.7273 H   0  0  0  0  0  0  0  0  0  0  0  0
   -4.0376   -5.8986    3.1405 H   0  0  0  0  0  0  0  0  0  0  0  0
   -2.5839   -2.2916    0.9114 H   0  0  0  0  0  0  0  0  0  0  0  0
   -4.3298    2.5842    4.1757 H   0  0  0  0  0  0  0  0  0  0  0  0
   -4.8378    1.0463    4.8626 H   0  0  0  0  0  0  0  0  0  0  0  0
   -4.3437    1.1392    3.1799 H   0  0  0  0  0  0  0  0  0  0  0  0
    4.2402    5.5935    3.8252 H   0  0  0  0  0  0  0  0  0  0  0  0
    4.8182    5.6079    5.5718 H   0  0  0  0  0  0  0  0  0  0  0  0
    5.8243    4.9374    4.3034 H   0  0  0  0  0  0  0  0  0  0  0  0
    4.9164   -1.4208    3.2936 H   0  0  0  0  0  0  0  0  0  0  0  0
    3.2654   -0.7438    2.7261 H   0  0  0  0  0  0  0  0  0  0  0  0
    3.8310   -0.5650    4.3607 H   0  0  0  0  0  0  0  0  0  0  0  0
    6.5259   -0.7259    0.9843 H   0  0  0  0  0  0  0  0  0  0  0  0
    4.3989   -1.9663    1.0831 H   0  0  0  0  0  0  0  0  0  0  0  0
    5.3781   -1.3325   -1.6965 H   0  0  0  0  0  0  0  0  0  0  0  0
    6.0387   -2.5944   -0.5100 H   0  0  0  0  0  0  0  0  0  0  0  0
    4.3472   -2.6686   -1.1575 H   0  0  0  0  0  0  0  0  0  0  0  0
    2.8336    0.0038    0.4913 H   0  0  0  0  0  0  0  0  0  0  0  0
    3.2536   -0.4487   -1.2690 H   0  0  0  0  0  0  0  0  0  0  0  0
    2.5608   -1.6258   -0.1079 H   0  0  0  0  0  0  0  0  0  0  0  0
    6.9231    0.0724   -1.1248 H   0  0  0  0  0  0  0  0  0  0  0  0
    4.9354    1.8800   -3.2307 H   0  0  0  0  0  0  0  0  0  0  0  0
    6.3089    4.0253   -1.5336 H   0  0  0  0  0  0  0  0  0  0  0  0
    4.1546    4.2521   -0.9435 H   0  0  0  0  0  0  0  0  0  0  0  0
    3.5306    3.3316   -2.3575 H   0  0  0  0  0  0  0  0  0  0  0  0
    4.0345    5.0919   -2.5604 H   0  0  0  0  0  0  0  0  0  0  0  0
    7.2264    4.6066   -3.4999 H   0  0  0  0  0  0  0  0  0  0  0  0
    5.9292    3.7973   -4.5368 H   0  0  0  0  0  0  0  0  0  0  0  0
    5.6209    5.3572   -3.6762 H   0  0  0  0  0  0  0  0  0  0  0  0
    8.8819    1.0751   -2.8878 H   0  0  0  0  0  0  0  0  0  0  0  0
    8.8192    2.8429   -3.1309 H   0  0  0  0  0  0  0  0  0  0  0  0
    8.2788    2.0806   -1.5251 H   0  0  0  0  0  0  0  0  0  0  0  0
    5.1140    0.7510   -6.8433 H   0  0  0  0  0  0  0  0  0  0  0  0
    5.6208   -0.8635   -6.1175 H   0  0  0  0  0  0  0  0  0  0  0  0
    4.2154   -2.2054   -5.0824 H   0  0  0  0  0  0  0  0  0  0  0  0
    2.0506   -2.8122   -4.2992 H   0  0  0  0  0  0  0  0  0  0  0  0
    0.6275    1.1838   -5.2294 H   0  0  0  0  0  0  0  0  0  0  0  0
    2.9304    1.7613   -6.0375 H   0  0  0  0  0  0  0  0  0  0  0  0
   -0.7124   -0.4532   -3.8576 H   0  0  0  0  0  0  0  0  0  0  0  0
   -2.6799   -3.2283   -4.4076 H   0  0  0  0  0  0  0  0  0  0  0  0
   -1.3009   -3.0504   -1.6886 H   0  0  0  0  0  0  0  0  0  0  0  0
   -2.8357   -3.8641   -1.9319 H   0  0  0  0  0  0  0  0  0  0  0  0
   -1.8586   -5.6443   -3.3197 H   0  0  0  0  0  0  0  0  0  0  0  0
   -0.2131   -5.0235   -3.0676 H   0  0  0  0  0  0  0  0  0  0  0  0
   -2.1401   -5.8261   -0.9042 H   0  0  0  0  0  0  0  0  0  0  0  0
   -0.7305   -6.8057   -1.5102 H   0  0  0  0  0  0  0  0  0  0  0  0
    0.1393   -4.1109   -0.7269 H   0  0  0  0  0  0  0  0  0  0  0  0
    0.9366   -3.6393    1.5654 H   0  0  0  0  0  0  0  0  0  0  0  0
    1.4644   -5.1445    2.4315 H   0  0  0  0  0  0  0  0  0  0  0  0
   -1.9233   -1.1088   -2.3515 H   0  0  0  0  0  0  0  0  0  0  0  0
   -4.2320    0.0931   -1.8101 H   0  0  0  0  0  0  0  0  0  0  0  0
   -1.9725    0.9557   -2.3931 H   0  0  0  0  0  0  0  0  0  0  0  0
   -1.5205    2.0526   -4.3729 H   0  0  0  0  0  0  0  0  0  0  0  0
   -2.6903    0.7197   -4.9013 H   0  0  0  0  0  0  0  0  0  0  0  0
   -3.1879    2.4977   -4.7446 H   0  0  0  0  0  0  0  0  0  0  0  0
   -2.4335    3.0362   -1.5427 H   0  0  0  0  0  0  0  0  0  0  0  0
   -4.1485    2.4911   -1.5600 H   0  0  0  0  0  0  0  0  0  0  0  0
   -3.5261    3.4303   -2.9667 H   0  0  0  0  0  0  0  0  0  0  0  0
   -5.1518    1.4454   -4.3327 H   0  0  0  0  0  0  0  0  0  0  0  0
   -7.7142    1.2762   -4.2934 H   0  0  0  0  0  0  0  0  0  0  0  0
   -7.2159    2.8495   -3.4733 H   0  0  0  0  0  0  0  0  0  0  0  0
   -8.6747    2.2295   -1.4897 H   0  0  0  0  0  0  0  0  0  0  0  0
   -9.5919    2.3846   -3.0374 H   0  0  0  0  0  0  0  0  0  0  0  0
   -9.5861   -0.0747   -3.2618 H   0  0  0  0  0  0  0  0  0  0  0  0
   -8.6117   -0.2425   -1.7465 H   0  0  0  0  0  0  0  0  0  0  0  0
  -10.3984    1.1150   -0.5546 H   0  0  0  0  0  0  0  0  0  0  0  0
  -11.3093    1.1275   -2.0671 H   0  0  0  0  0  0  0  0  0  0  0  0
  -11.6236   -1.2337   -2.1249 H   0  0  0  0  0  0  0  0  0  0  0  0
  -12.2060   -0.5918   -0.5915 H   0  0  0  0  0  0  0  0  0  0  0  0
   -8.2254   -4.2404   -0.1613 H   0  0  0  0  0  0  0  0  0  0  0  0
   -9.0343   -3.4205    2.1831 H   0  0  0  0  0  0  0  0  0  0  0  0
  1  2  1  0
  2  3  1  0
  3  4  1  0
  3  5  1  0
  5  6  1  0
  6  7  1  0
  7  8  1  0
  8  9  2  0
  8 10  1  0
 10 11  1  0
 11 12  1  0
 12 13  1  0
 13 14  1  0
 14 15  1  0
 15 16  1  0
 16 17  1  0
 16 18  1  0
 18 19  2  0
 18 20  1  0
 20 21  1  0
 21 22  1  0
 21 23  1  0
 23 24  1  0
 24 25  2  0
 25 26  1  0
 26 27  2  0
 27 28  1  0
 28 29  2  0
 23 30  1  0
 15 31  1  0
 31 32  1  0
  6 33  1  0
 33 34  1  0
  5 35  1  0
 35 36  1  0
 35 37  1  0
 37 38  2  0
 37 39  1  0
 39 40  1  0
 40 41  1  0
 40 42  1  0
 39 43  1  0
 43 44  1  0
 44 45  2  0
 44 46  1  0
 46 47  1  0
 47 48  1  0
 47 49  1  0
 46 50  1  0
 50 51  1  0
 50 52  1  0
 52 53  2  0
 52 54  1  0
 54 55  1  0
 55 56  1  0
 56 57  1  0
 57 58  2  0
 58 59  1  0
 59 60  2  0
 60 61  1  0
 59 62  1  0
 62 63  1  0
 63 64  2  0
 63 65  1  0
 65 66  1  0
 66 67  1  0
 67 68  1  0
 68 69  1  0
 69 70  1  0
 70 71  2  0
 70 72  1  0
 65 73  1  0
 73 74  1  0
 74 75  2  0
 74 76  1  0
 76 77  1  0
 77 78  1  0
 77 79  1  0
 76 80  1  0
 80 81  1  0
 81 82  2  0
 81 83  1  0
 83 84  1  0
 84 85  1  0
 85 86  1  0
 86 87  1  0
 87 88  1  0
 88 89  1  0
 89 90  2  0
 89 91  1  0
 91 92  2  0
 92 93  1  0
 93 94  2  0
 14 10  1  0
 29 24  1  0
 61 56  2  0
 93 88  1  0
  1 95  1  0
  1 96  1  0
  1 97  1  0
  2 98  1  0
  2 99  1  0
  3100  1  1
  4101  1  0
  4102  1  0
  4103  1  0
  5104  1  1
  6105  1  6
  7106  1  0
  7107  1  0
 11108  1  0
 11109  1  0
 12110  1  0
 12111  1  0
 13112  1  0
 13113  1  0
 14114  1  1
 15115  1  6
 16116  1  6
 17117  1  0
 17118  1  0
 17119  1  0
 20120  1  0
 21121  1  6
 22122  1  0
 22123  1  0
 22124  1  0
 23125  1  1
 25126  1  0
 26127  1  0
 27128  1  0
 28129  1  0
 29130  1  0
 30131  1  0
 32132  1  0
 32133  1  0
 32134  1  0
 34135  1  0
 34136  1  0
 34137  1  0
 36138  1  0
 36139  1  0
 36140  1  0
 39141  1  1
 40142  1  0
 41143  1  0
 41144  1  0
 41145  1  0
 42146  1  0
 42147  1  0
 42148  1  0
 43149  1  0
 46150  1  6
 47151  1  0
 48152  1  0
 48153  1  0
 48154  1  0
 49155  1  0
 49156  1  0
 49157  1  0
 51158  1  0
 51159  1  0
 51160  1  0
 55161  1  0
 55162  1  0
 57163  1  0
 58164  1  0
 60165  1  0
 61166  1  0
 62167  1  0
 65168  1  6
 66169  1  0
 66170  1  0
 67171  1  0
 67172  1  0
 68173  1  0
 68174  1  0
 69175  1  0
 72176  1  0
 72177  1  0
 73178  1  0
 76179  1  1
 77180  1  0
 78181  1  0
 78182  1  0
 78183  1  0
 79184  1  0
 79185  1  0
 79186  1  0
 80187  1  0
 83188  1  0
 83189  1  0
 84190  1  0
 84191  1  0
 85192  1  0
 85193  1  0
 86194  1  0
 86195  1  0
 87196  1  0
 87197  1  0
 91198  1  0
 92199  1  0
M  END
$$$$

     RDKit          3D

199202  0  0  0  0  0  0  0  0999 V2000
   -6.4626   -3.6501   -6.4347 C   0  0  0  0  0  0  0  0  0  0  0  0
   -5.6434   -3.7237   -5.1359 C   0  0  0  0  0  0  0  0  0  0  0  0
   -4.5574   -4.7308   -5.2584 C   0  0  2  0  0  0  0  0  0  0  0  0
   -5.1062   -6.1213   -5.5149 C   0  0  0  0  0  0  0  0  0  0  0  0
   -3.4592   -4.7271   -4.3036 C   0  0  1  0  0  0  0  0  0  0  0  0
   -2.6623   -3.3710   -4.3327 C   0  0  1  0  0  0  0  0  0  0  0  0
   -1.3235   -3.7255   -3.6433 C   0  0  0  0  0  0  0  0  0  0  0  0
   -0.4900   -2.5364   -3.4365 C   0  0  0  0  0  0  0  0  0  0  0  0
   -1.0281   -1.4213   -3.6588 O   0  0  0  0  0  0  0  0  0  0  0  0
    0.8346   -2.5731   -2.9917 N   0  0  0  0  0  0  0  0  0  0  0  0
    1.8807   -3.5771   -2.9611 C   0  0  0  0  0  0  0  0  0  0  0  0
    3.0409   -2.6637   -3.4468 C   0  0  0  0  0  0  0  0  0  0  0  0
    2.5774   -1.2128   -3.0857 C   0  0  0  0  0  0  0  0  0  0  0  0
    1.5101   -1.4903   -2.1499 C   0  0  1  0  0  0  0  0  0  0  0  0
    0.5009   -0.5537   -1.6606 C   0  0  1  0  0  0  0  0  0  0  0  0
   -0.3952   -1.3095   -0.6589 C   0  0  1  0  0  0  0  0  0  0  0  0
    0.5018   -1.6942    0.5023 C   0  0  0  0  0  0  0  0  0  0  0  0
   -1.6244   -0.6856   -0.2681 C   0  0  0  0  0  0  0  0  0  0  0  0
   -2.0808   -0.6338    0.9104 O   0  0  0  0  0  0  0  0  0  0  0  0
   -2.4544   -0.0533   -1.2569 N   0  0  0  0  0  0  0  0  0  0  0  0
   -3.7353    0.5320   -0.9617 C   0  0  2  0  0  0  0  0  0  0  0  0
   -4.6229    0.5161   -2.1489 C   0  0  0  0  0  0  0  0  0  0  0  0
   -3.6710    1.9368   -0.3596 C   0  0  1  0  0  0  0  0  0  0  0  0
   -5.1066    2.2499   -0.0031 C   0  0  0  0  0  0  0  0  0  0  0  0
   -5.8417    3.2022   -0.6681 C   0  0  0  0  0  0  0  0  0  0  0  0
   -7.1533    3.3737   -0.2593 C   0  0  0  0  0  0  0  0  0  0  0  0
   -7.7005    2.6235    0.7706 C   0  0  0  0  0  0  0  0  0  0  0  0
   -6.9153    1.6873    1.3975 C   0  0  0  0  0  0  0  0  0  0  0  0
   -5.6181    1.4756    1.0370 C   0  0  0  0  0  0  0  0  0  0  0  0
   -2.9652    1.8665    0.8370 O   0  0  0  0  0  0  0  0  0  0  0  0
    1.1839    0.3872   -0.8280 O   0  0  0  0  0  0  0  0  0  0  0  0
    0.8881    1.6834   -1.2197 C   0  0  0  0  0  0  0  0  0  0  0  0
   -2.4023   -3.1871   -5.6655 O   0  0  0  0  0  0  0  0  0  0  0  0
   -2.7958   -2.0475   -6.2757 C   0  0  0  0  0  0  0  0  0  0  0  0
   -3.7862   -4.9403   -2.8883 N   0  0  0  0  0  0  0  0  0  0  0  0
   -4.7415   -4.0880   -2.2380 C   0  0  0  0  0  0  0  0  0  0  0  0
   -3.1102   -5.9507   -2.1185 C   0  0  0  0  0  0  0  0  0  0  0  0
   -2.2106   -6.6690   -2.6910 O   0  0  0  0  0  0  0  0  0  0  0  0
   -3.3602   -6.2204   -0.7089 C   0  0  1  0  0  0  0  0  0  0  0  0
   -4.4017   -7.3465   -0.6018 C   0  0  0  0  0  0  0  0  0  0  0  0
   -3.8663   -8.5755   -1.2998 C   0  0  0  0  0  0  0  0  0  0  0  0
   -5.7179   -7.0102   -1.1934 C   0  0  0  0  0  0  0  0  0  0  0  0
   -2.1627   -6.8542   -0.0980 N   0  0  0  0  0  0  0  0  0  0  0  0
   -1.8231   -6.4261    1.2480 C   0  0  0  0  0  0  0  0  0  0  0  0
   -2.5199   -5.5691    1.8514 O   0  0  0  0  0  0  0  0  0  0  0  0
   -0.6216   -7.0501    1.8775 C   0  0  1  0  0  0  0  0  0  0  0  0
    0.6077   -6.4328    1.3084 C   0  0  0  0  0  0  0  0  0  0  0  0
    1.8688   -7.0500    1.9353 C   0  0  0  0  0  0  0  0  0  0  0  0
    0.7340   -6.4872   -0.1855 C   0  0  0  0  0  0  0  0  0  0  0  0
   -0.6430   -6.9992    3.3252 N   0  0  0  0  0  0  0  0  0  0  0  0
   -0.8307   -8.3079    4.0012 C   0  0  0  0  0  0  0  0  0  0  0  0
   -0.5144   -5.8898    4.1348 C   0  0  0  0  0  0  0  0  0  0  0  0
   -0.5977   -6.1216    5.4219 O   0  0  0  0  0  0  0  0  0  0  0  0
   -0.3064   -4.5666    3.8435 O   0  0  0  0  0  0  0  0  0  0  0  0
   -0.1828   -3.5814    4.8740 C   0  0  0  0  0  0  0  0  0  0  0  0
    0.0427   -2.2246    4.3960 C   0  0  0  0  0  0  0  0  0  0  0  0
    1.3208   -1.7611    4.1554 C   0  0  0  0  0  0  0  0  0  0  0  0
    1.5905   -0.4874    3.6993 C   0  0  0  0  0  0  0  0  0  0  0  0
    0.5428    0.3938    3.4607 C   0  0  0  0  0  0  0  0  0  0  0  0
   -0.7221   -0.0758    3.7055 C   0  0  0  0  0  0  0  0  0  0  0  0
   -1.0001   -1.3446    4.1606 C   0  0  0  0  0  0  0  0  0  0  0  0
    0.7667    1.6888    2.9460 N   0  0  0  0  0  0  0  0  0  0  0  0
    1.0024    2.8634    3.7047 C   0  0  0  0  0  0  0  0  0  0  0  0
    1.0438    2.9031    4.9549 O   0  0  0  0  0  0  0  0  0  0  0  0
    1.2165    4.1202    2.9406 C   0  0  1  0  0  0  0  0  0  0  0  0
    0.0753    4.4077    1.9788 C   0  0  0  0  0  0  0  0  0  0  0  0
    0.3330    5.7069    1.2565 C   0  0  0  0  0  0  0  0  0  0  0  0
   -0.7614    6.0983    0.3143 C   0  0  0  0  0  0  0  0  0  0  0  0
   -0.9829    5.1702   -0.7501 N   0  0  0  0  0  0  0  0  0  0  0  0
   -2.0034    5.3662   -1.7478 C   0  0  0  0  0  0  0  0  0  0  0  0
   -2.7646    6.3908   -1.7256 O   0  0  0  0  0  0  0  0  0  0  0  0
   -2.2186    4.4355   -2.8086 N   0  0  0  0  0  0  0  0  0  0  0  0
    1.5308    5.2661    3.7370 N   0  0  0  0  0  0  0  0  0  0  0  0
    2.8393    5.7203    3.8909 C   0  0  0  0  0  0  0  0  0  0  0  0
    3.7562    5.0205    3.3028 O   0  0  0  0  0  0  0  0  0  0  0  0
    3.3218    6.8920    4.6279 C   0  0  1  0  0  0  0  0  0  0  0  0
    2.7448    7.2743    5.9088 C   0  0  0  0  0  0  0  0  0  0  0  0
    1.3078    7.6074    5.9153 C   0  0  0  0  0  0  0  0  0  0  0  0
    3.0620    6.3401    7.0578 C   0  0  0  0  0  0  0  0  0  0  0  0
    4.7867    6.9449    4.6239 N   0  0  0  0  0  0  0  0  0  0  0  0
    5.4852    7.2640    3.4076 C   0  0  0  0  0  0  0  0  0  0  0  0
    4.7563    7.4602    2.4083 O   0  0  0  0  0  0  0  0  0  0  0  0
    6.9638    7.3312    3.4088 C   0  0  0  0  0  0  0  0  0  0  0  0
    7.4438    7.1022    1.9778 C   0  0  0  0  0  0  0  0  0  0  0  0
    6.9998    5.6923    1.6340 C   0  0  0  0  0  0  0  0  0  0  0  0
    7.4008    5.2700    0.2331 C   0  0  0  0  0  0  0  0  0  0  0  0
    6.8684    3.8421    0.0845 C   0  0  0  0  0  0  0  0  0  0  0  0
    7.1576    3.2548   -1.1872 N   0  0  0  0  0  0  0  0  0  0  0  0
    8.3508    2.4812   -1.4572 C   0  0  0  0  0  0  0  0  0  0  0  0
    9.2661    2.2387   -0.6293 O   0  0  0  0  0  0  0  0  0  0  0  0
    8.2778    2.0581   -2.8303 C   0  0  0  0  0  0  0  0  0  0  0  0
    7.1741    2.4909   -3.4203 C   0  0  0  0  0  0  0  0  0  0  0  0
    6.4542    3.2428   -2.4137 C   0  0  0  0  0  0  0  0  0  0  0  0
    5.3335    3.8241   -2.5915 O   0  0  0  0  0  0  0  0  0  0  0  0
   -5.7699   -3.8496   -7.2757 H   0  0  0  0  0  0  0  0  0  0  0  0
   -6.9077   -2.6335   -6.5601 H   0  0  0  0  0  0  0  0  0  0  0  0
   -7.2894   -4.3590   -6.4707 H   0  0  0  0  0  0  0  0  0  0  0  0
   -5.3637   -2.7118   -4.8765 H   0  0  0  0  0  0  0  0  0  0  0  0
   -6.4169   -4.0549   -4.3829 H   0  0  0  0  0  0  0  0  0  0  0  0
   -4.0646   -4.4768   -6.2800 H   0  0  0  0  0  0  0  0  0  0  0  0
   -4.2699   -6.8074   -5.6162 H   0  0  0  0  0  0  0  0  0  0  0  0
   -5.8367   -6.3999   -4.7226 H   0  0  0  0  0  0  0  0  0  0  0  0
   -5.6332   -6.0765   -6.4865 H   0  0  0  0  0  0  0  0  0  0  0  0
   -2.6871   -5.4593   -4.5805 H   0  0  0  0  0  0  0  0  0  0  0  0
   -3.1503   -2.5871   -3.8041 H   0  0  0  0  0  0  0  0  0  0  0  0
   -1.6039   -4.0687   -2.5948 H   0  0  0  0  0  0  0  0  0  0  0  0
   -0.7779   -4.4885   -4.2077 H   0  0  0  0  0  0  0  0  0  0  0  0
    2.0576   -3.9425   -1.9437 H   0  0  0  0  0  0  0  0  0  0  0  0
    1.7318   -4.4022   -3.6751 H   0  0  0  0  0  0  0  0  0  0  0  0
    3.2054   -2.7759   -4.5146 H   0  0  0  0  0  0  0  0  0  0  0  0
    3.9039   -2.9558   -2.8222 H   0  0  0  0  0  0  0  0  0  0  0  0
    2.2695   -0.7580   -4.0624 H   0  0  0  0  0  0  0  0  0  0  0  0
    3.4911   -0.7441   -2.7032 H   0  0  0  0  0  0  0  0  0  0  0  0
    1.9767   -2.0651   -1.2791 H   0  0  0  0  0  0  0  0  0  0  0  0
   -0.0640    0.0267   -2.3857 H   0  0  0  0  0  0  0  0  0  0  0  0
   -0.7105   -2.3024   -1.1507 H   0  0  0  0  0  0  0  0  0  0  0  0
    1.3453   -0.9681    0.6441 H   0  0  0  0  0  0  0  0  0  0  0  0
   -0.0937   -1.6707    1.4281 H   0  0  0  0  0  0  0  0  0  0  0  0
    0.9440   -2.7028    0.3029 H   0  0  0  0  0  0  0  0  0  0  0  0
   -2.1140   -0.0035   -2.2482 H   0  0  0  0  0  0  0  0  0  0  0  0
   -4.2303   -0.0820   -0.1306 H   0  0  0  0  0  0  0  0  0  0  0  0
   -5.4235   -0.2344   -2.0191 H   0  0  0  0  0  0  0  0  0  0  0  0
   -4.0415    0.3368   -3.0784 H   0  0  0  0  0  0  0  0  0  0  0  0
   -5.1446    1.4879   -2.2970 H   0  0  0  0  0  0  0  0  0  0  0  0
   -3.2546    2.6983   -0.9993 H   0  0  0  0  0  0  0  0  0  0  0  0
   -5.4252    3.7919   -1.4708 H   0  0  0  0  0  0  0  0  0  0  0  0
   -7.8067    4.1053   -0.7368 H   0  0  0  0  0  0  0  0  0  0  0  0
   -8.7221    2.7361    1.1187 H   0  0  0  0  0  0  0  0  0  0  0  0
   -7.2958    1.0540    2.2114 H   0  0  0  0  0  0  0  0  0  0  0  0
   -5.0297    0.7291    1.5574 H   0  0  0  0  0  0  0  0  0  0  0  0
   -3.5315    2.1131    1.5978 H   0  0  0  0  0  0  0  0  0  0  0  0
   -0.1941    1.9080   -1.1590 H   0  0  0  0  0  0  0  0  0  0  0  0
    1.4139    2.3676   -0.5186 H   0  0  0  0  0  0  0  0  0  0  0  0
    1.3437    1.8848   -2.2127 H   0  0  0  0  0  0  0  0  0  0  0  0
   -2.3935   -1.0985   -5.8746 H   0  0  0  0  0  0  0  0  0  0  0  0
   -2.3137   -2.0847   -7.3187 H   0  0  0  0  0  0  0  0  0  0  0  0
   -3.8776   -1.9562   -6.5348 H   0  0  0  0  0  0  0  0  0  0  0  0
   -4.4838   -3.9623   -1.1410 H   0  0  0  0  0  0  0  0  0  0  0  0
   -5.7779   -4.4360   -2.2320 H   0  0  0  0  0  0  0  0  0  0  0  0
   -4.7155   -3.0360   -2.6090 H   0  0  0  0  0  0  0  0  0  0  0  0
   -3.6234   -5.3902   -0.0577 H   0  0  0  0  0  0  0  0  0  0  0  0
   -4.5599   -7.5885    0.4768 H   0  0  0  0  0  0  0  0  0  0  0  0
   -4.6076   -9.4228   -1.2104 H   0  0  0  0  0  0  0  0  0  0  0  0
   -2.9360   -8.9881   -0.8717 H   0  0  0  0  0  0  0  0  0  0  0  0
   -3.7946   -8.3967   -2.4065 H   0  0  0  0  0  0  0  0  0  0  0  0
   -5.6090   -6.8376   -2.2705 H   0  0  0  0  0  0  0  0  0  0  0  0
   -6.3798   -7.8938   -1.0674 H   0  0  0  0  0  0  0  0  0  0  0  0
   -6.1918   -6.1693   -0.6449 H   0  0  0  0  0  0  0  0  0  0  0  0
   -1.6043   -7.5609   -0.6067 H   0  0  0  0  0  0  0  0  0  0  0  0
   -0.6865   -8.1219    1.5430 H   0  0  0  0  0  0  0  0  0  0  0  0
    0.6523   -5.3366    1.5748 H   0  0  0  0  0  0  0  0  0  0  0  0
    1.9292   -6.7221    2.9846 H   0  0  0  0  0  0  0  0  0  0  0  0
    1.7689   -8.1427    1.7944 H   0  0  0  0  0  0  0  0  0  0  0  0
    2.7843   -6.6865    1.4246 H   0  0  0  0  0  0  0  0  0  0  0  0
    0.0052   -5.8257   -0.6998 H   0  0  0  0  0  0  0  0  0  0  0  0
    1.7378   -6.0108   -0.4323 H   0  0  0  0  0  0  0  0  0  0  0  0
    0.7600   -7.5065   -0.5854 H   0  0  0  0  0  0  0  0  0  0  0  0
   -0.0578   -8.3765    4.7778 H   0  0  0  0  0  0  0  0  0  0  0  0
   -1.8594   -8.3818    4.3963 H   0  0  0  0  0  0  0  0  0  0  0  0
   -0.7255   -9.1312    3.2768 H   0  0  0  0  0  0  0  0  0  0  0  0
   -1.1077   -3.6718    5.4982 H   0  0  0  0  0  0  0  0  0  0  0  0
    0.6641   -3.9577    5.5132 H   0  0  0  0  0  0  0  0  0  0  0  0
    2.1313   -2.4824    4.3507 H   0  0  0  0  0  0  0  0  0  0  0  0
    2.6138   -0.1928    3.5349 H   0  0  0  0  0  0  0  0  0  0  0  0
   -1.5399    0.6132    3.5243 H   0  0  0  0  0  0  0  0  0  0  0  0
   -2.0061   -1.7081    4.3500 H   0  0  0  0  0  0  0  0  0  0  0  0
    0.7454    1.7594    1.8725 H   0  0  0  0  0  0  0  0  0  0  0  0
    2.1221    3.9143    2.3233 H   0  0  0  0  0  0  0  0  0  0  0  0
   -0.9179    4.4045    2.4569 H   0  0  0  0  0  0  0  0  0  0  0  0
    0.1187    3.6064    1.2089 H   0  0  0  0  0  0  0  0  0  0  0  0
    1.2596    5.5654    0.6447 H   0  0  0  0  0  0  0  0  0  0  0  0
    0.4482    6.5218    2.0046 H   0  0  0  0  0  0  0  0  0  0  0  0
   -0.5207    7.0854   -0.1867 H   0  0  0  0  0  0  0  0  0  0  0  0
   -1.6710    6.3025    0.9286 H   0  0  0  0  0  0  0  0  0  0  0  0
   -0.3639    4.2927   -0.7881 H   0  0  0  0  0  0  0  0  0  0  0  0
   -1.4808    3.8900   -3.2853 H   0  0  0  0  0  0  0  0  0  0  0  0
   -3.2285    4.2994   -3.1307 H   0  0  0  0  0  0  0  0  0  0  0  0
    0.7568    5.7602    4.2124 H   0  0  0  0  0  0  0  0  0  0  0  0
    3.0675    7.7472    3.8920 H   0  0  0  0  0  0  0  0  0  0  0  0
    3.2795    8.2400    6.2088 H   0  0  0  0  0  0  0  0  0  0  0  0
    0.6432    6.8135    6.2948 H   0  0  0  0  0  0  0  0  0  0  0  0
    1.1124    8.5043    6.5966 H   0  0  0  0  0  0  0  0  0  0  0  0
    0.9976    7.9789    4.9299 H   0  0  0  0  0  0  0  0  0  0  0  0
    2.6355    6.7357    7.9988 H   0  0  0  0  0  0  0  0  0  0  0  0
    2.8880    5.2870    6.8540 H   0  0  0  0  0  0  0  0  0  0  0  0
    4.1754    6.4441    7.2186 H   0  0  0  0  0  0  0  0  0  0  0  0
    5.3156    6.7469    5.5225 H   0  0  0  0  0  0  0  0  0  0  0  0
    7.2079    8.4185    3.6071 H   0  0  0  0  0  0  0  0  0  0  0  0
    7.4522    6.6800    4.1364 H   0  0  0  0  0  0  0  0  0  0  0  0
    6.9069    7.7582    1.2635 H   0  0  0  0  0  0  0  0  0  0  0  0
    8.5178    7.2549    1.8330 H   0  0  0  0  0  0  0  0  0  0  0  0
    7.5605    5.0317    2.3404 H   0  0  0  0  0  0  0  0  0  0  0  0
    5.9176    5.6213    1.7078 H   0  0  0  0  0  0  0  0  0  0  0  0
    8.4918    5.2220    0.1138 H   0  0  0  0  0  0  0  0  0  0  0  0
    6.9807    5.9023   -0.5600 H   0  0  0  0  0  0  0  0  0  0  0  0
    5.7823    3.9289    0.2453 H   0  0  0  0  0  0  0  0  0  0  0  0
    7.3214    3.2499    0.9231 H   0  0  0  0  0  0  0  0  0  0  0  0
    9.0336    1.4544   -3.3398 H   0  0  0  0  0  0  0  0  0  0  0  0
    6.8963    2.2887   -4.4622 H   0  0  0  0  0  0  0  0  0  0  0  0
  1  2  1  0
  2  3  1  0
  3  4  1  0
  3  5  1  0
  5  6  1  0
  6  7  1  0
  7  8  1  0
  8  9  2  0
  8 10  1  0
 10 11  1  0
 11 12  1  0
 12 13  1  0
 13 14  1  0
 14 15  1  0
 15 16  1  0
 16 17  1  0
 16 18  1  0
 18 19  2  0
 18 20  1  0
 20 21  1  0
 21 22  1  0
 21 23  1  0
 23 24  1  0
 24 25  2  0
 25 26  1  0
 26 27  2  0
 27 28  1  0
 28 29  2  0
 23 30  1  0
 15 31  1  0
 31 32  1  0
  6 33  1  0
 33 34  1  0
  5 35  1  0
 35 36  1  0
 35 37  1  0
 37 38  2  0
 37 39  1  0
 39 40  1  0
 40 41  1  0
 40 42  1  0
 39 43  1  0
 43 44  1  0
 44 45  2  0
 44 46  1  0
 46 47  1  0
 47 48  1  0
 47 49  1  0
 46 50  1  0
 50 51  1  0
 50 52  1  0
 52 53  2  0
 52 54  1  0
 54 55  1  0
 55 56  1  0
 56 57  1  0
 57 58  2  0
 58 59  1  0
 59 60  2  0
 60 61  1  0
 59 62  1  0
 62 63  1  0
 63 64  2  0
 63 65  1  0
 65 66  1  0
 66 67  1  0
 67 68  1  0
 68 69  1  0
 69 70  1  0
 70 71  2  0
 70 72  1  0
 65 73  1  0
 73 74  1  0
 74 75  2  0
 74 76  1  0
 76 77  1  0
 77 78  1  0
 77 79  1  0
 76 80  1  0
 80 81  1  0
 81 82  2  0
 81 83  1  0
 83 84  1  0
 84 85  1  0
 85 86  1  0
 86 87  1  0
 87 88  1  0
 88 89  1  0
 89 90  2  0
 89 91  1  0
 91 92  2  0
 92 93  1  0
 93 94  2  0
 14 10  1  0
 29 24  1  0
 61 56  2  0
 93 88  1  0
  1 95  1  0
  1 96  1  0
  1 97  1  0
  2 98  1  0
  2 99  1  0
  3100  1  6
  4101  1  0
  4102  1  0
  4103  1  0
  5104  1  6
  6105  1  1
  7106  1  0
  7107  1  0
 11108  1  0
 11109  1  0
 12110  1  0
 12111  1  0
 13112  1  0
 13113  1  0
 14114  1  1
 15115  1  6
 16116  1  6
 17117  1  0
 17118  1  0
 17119  1  0
 20120  1  0
 21121  1  1
 22122  1  0
 22123  1  0
 22124  1  0
 23125  1  6
 25126  1  0
 26127  1  0
 27128  1  0
 28129  1  0
 29130  1  0
 30131  1  0
 32132  1  0
 32133  1  0
 32134  1  0
 34135  1  0
 34136  1  0
 34137  1  0
 36138  1  0
 36139  1  0
 36140  1  0
 39141  1  1
 40142  1  0
 41143  1  0
 41144  1  0
 41145  1  0
 42146  1  0
 42147  1  0
 42148  1  0
 43149  1  0
 46150  1  1
 47151  1  0
 48152  1  0
 48153  1  0
 48154  1  0
 49155  1  0
 49156  1  0
 49157  1  0
 51158  1  0
 51159  1  0
 51160  1  0
 55161  1  0
 55162  1  0
 57163  1  0
 58164  1  0
 60165  1  0
 61166  1  0
 62167  1  0
 65168  1  6
 66169  1  0
 66170  1  0
 67171  1  0
 67172  1  0
 68173  1  0
 68174  1  0
 69175  1  0
 72176  1  0
 72177  1  0
 73178  1  0
 76179  1  6
 77180  1  0
 78181  1  0
 78182  1  0
 78183  1  0
 79184  1  0
 79185  1  0
 79186  1  0
 80187  1  0
 83188  1  0
 83189  1  0
 84190  1  0
 84191  1  0
 85192  1  0
 85193  1  0
 86194  1  0
 86195  1  0
 87196  1  0
 87197  1  0
 91198  1  0
 92199  1  0
M  END
$$$$

     RDKit          3D

199202  0  0  0  0  0  0  0  0999 V2000
    1.9288   -4.4976   -5.5915 C   0  0  0  0  0  0  0  0  0  0  0  0
    0.8888   -4.1739   -4.5204 C   0  0  0  0  0  0  0  0  0  0  0  0
    1.2316   -2.8170   -3.8809 C   0  0  2  0  0  0  0  0  0  0  0  0
    2.5741   -2.9973   -3.2673 C   0  0  0  0  0  0  0  0  0  0  0  0
    0.1358   -2.3559   -2.9295 C   0  0  1  0  0  0  0  0  0  0  0  0
    0.3863   -1.0306   -2.3381 C   0  0  1  0  0  0  0  0  0  0  0  0
   -0.7451   -0.2672   -1.7585 C   0  0  0  0  0  0  0  0  0  0  0  0
   -1.5218   -0.7992   -0.6623 C   0  0  0  0  0  0  0  0  0  0  0  0
   -2.4734   -1.5954   -0.8837 O   0  0  0  0  0  0  0  0  0  0  0  0
   -1.2910   -0.4796    0.7139 N   0  0  0  0  0  0  0  0  0  0  0  0
   -0.2447    0.3948    1.2047 C   0  0  0  0  0  0  0  0  0  0  0  0
   -0.0984    0.1526    2.6715 C   0  0  0  0  0  0  0  0  0  0  0  0
   -0.9180   -1.0881    2.9008 C   0  0  0  0  0  0  0  0  0  0  0  0
   -2.0177   -0.9198    1.8877 C   0  0  1  0  0  0  0  0  0  0  0  0
   -3.0966    0.0137    2.3334 C   0  0  1  0  0  0  0  0  0  0  0  0
   -3.9928   -0.5685    3.3772 C   0  0  1  0  0  0  0  0  0  0  0  0
   -5.0368    0.4809    3.7727 C   0  0  0  0  0  0  0  0  0  0  0  0
   -4.8147   -1.6384    2.6945 C   0  0  0  0  0  0  0  0  0  0  0  0
   -4.7185   -1.8750    1.4673 O   0  0  0  0  0  0  0  0  0  0  0  0
   -5.7017   -2.3521    3.5514 N   0  0  0  0  0  0  0  0  0  0  0  0
   -6.5647   -3.4049    3.0758 C   0  0  2  0  0  0  0  0  0  0  0  0
   -7.9913   -2.9202    3.2095 C   0  0  0  0  0  0  0  0  0  0  0  0
   -6.4111   -4.7077    3.8283 C   0  0  1  0  0  0  0  0  0  0  0  0
   -7.4071   -5.6718    3.2921 C   0  0  0  0  0  0  0  0  0  0  0  0
   -8.5590   -6.0201    3.9685 C   0  0  0  0  0  0  0  0  0  0  0  0
   -9.4806   -6.9133    3.4480 C   0  0  0  0  0  0  0  0  0  0  0  0
   -9.1979   -7.4496    2.2102 C   0  0  0  0  0  0  0  0  0  0  0  0
   -8.0537   -7.1073    1.5333 C   0  0  0  0  0  0  0  0  0  0  0  0
   -7.1319   -6.2228    2.0373 C   0  0  0  0  0  0  0  0  0  0  0  0
   -5.1114   -5.2042    3.7249 O   0  0  0  0  0  0  0  0  0  0  0  0
   -2.5697    1.2389    2.6254 O   0  0  0  0  0  0  0  0  0  0  0  0
   -2.9817    2.2827    1.8316 C   0  0  0  0  0  0  0  0  0  0  0  0
    1.5297   -0.9621   -1.6012 O   0  0  0  0  0  0  0  0  0  0  0  0
    2.5080   -0.1090   -2.0339 C   0  0  0  0  0  0  0  0  0  0  0  0
   -1.0892   -2.4485   -3.6956 N   0  0  0  0  0  0  0  0  0  0  0  0
   -1.1858   -1.4570   -4.7974 C   0  0  0  0  0  0  0  0  0  0  0  0
   -2.1550   -3.3355   -3.5275 C   0  0  0  0  0  0  0  0  0  0  0  0
   -3.1471   -3.1286   -4.3736 O   0  0  0  0  0  0  0  0  0  0  0  0
   -2.3965   -4.4262   -2.6238 C   0  0  1  0  0  0  0  0  0  0  0  0
   -3.0815   -5.5864   -3.3555 C   0  0  0  0  0  0  0  0  0  0  0  0
   -2.2862   -6.1199   -4.4931 C   0  0  0  0  0  0  0  0  0  0  0  0
   -4.4398   -5.1341   -3.7772 C   0  0  0  0  0  0  0  0  0  0  0  0
   -1.3857   -4.9136   -1.7308 N   0  0  0  0  0  0  0  0  0  0  0  0
   -1.5022   -4.9437   -0.3168 C   0  0  0  0  0  0  0  0  0  0  0  0
   -2.6045   -4.4798    0.1480 O   0  0  0  0  0  0  0  0  0  0  0  0
   -0.5379   -5.4366    0.6507 C   0  0  1  0  0  0  0  0  0  0  0  0
   -1.1626   -6.6360    1.4409 C   0  0  0  0  0  0  0  0  0  0  0  0
   -2.3944   -6.0959    2.1327 C   0  0  0  0  0  0  0  0  0  0  0  0
   -1.5790   -7.7348    0.5281 C   0  0  0  0  0  0  0  0  0  0  0  0
    0.7721   -5.7809    0.2403 N   0  0  0  0  0  0  0  0  0  0  0  0
    1.1482   -6.6644   -0.8386 C   0  0  0  0  0  0  0  0  0  0  0  0
    1.8774   -5.2157    0.9930 C   0  0  0  0  0  0  0  0  0  0  0  0
    1.6422   -4.4668    2.0017 O   0  0  0  0  0  0  0  0  0  0  0  0
    3.1785   -5.4441    0.6864 O   0  0  0  0  0  0  0  0  0  0  0  0
    4.3402   -5.0288    1.3003 C   0  0  0  0  0  0  0  0  0  0  0  0
    4.5734   -3.6017    1.4764 C   0  0  0  0  0  0  0  0  0  0  0  0
    5.1193   -2.7433    0.5549 C   0  0  0  0  0  0  0  0  0  0  0  0
    5.3326   -1.4089    0.8617 C   0  0  0  0  0  0  0  0  0  0  0  0
    5.0039   -0.8943    2.1052 C   0  0  0  0  0  0  0  0  0  0  0  0
    4.4568   -1.7378    3.0359 C   0  0  0  0  0  0  0  0  0  0  0  0
    4.2496   -3.0500    2.7270 C   0  0  0  0  0  0  0  0  0  0  0  0
    5.2631    0.4835    2.3184 N   0  0  0  0  0  0  0  0  0  0  0  0
    4.2364    1.4393    2.1053 C   0  0  0  0  0  0  0  0  0  0  0  0
    3.1173    0.9989    1.7427 O   0  0  0  0  0  0  0  0  0  0  0  0
    4.3918    2.8864    2.2741 C   0  0  1  0  0  0  0  0  0  0  0  0
    5.2863    3.4576    1.1428 C   0  0  0  0  0  0  0  0  0  0  0  0
    4.6940    3.2237   -0.2095 C   0  0  0  0  0  0  0  0  0  0  0  0
    5.6043    3.8024   -1.2709 C   0  0  0  0  0  0  0  0  0  0  0  0
    5.0621    3.6126   -2.6056 N   0  0  0  0  0  0  0  0  0  0  0  0
    3.8009    4.1611   -3.0021 C   0  0  0  0  0  0  0  0  0  0  0  0
    3.0797    4.8429   -2.2299 O   0  0  0  0  0  0  0  0  0  0  0  0
    3.2882    3.9566   -4.3228 N   0  0  0  0  0  0  0  0  0  0  0  0
    3.0992    3.5382    2.0063 N   0  0  0  0  0  0  0  0  0  0  0  0
    2.9472    4.8978    2.3686 C   0  0  0  0  0  0  0  0  0  0  0  0
    3.8836    5.5605    2.9025 O   0  0  0  0  0  0  0  0  0  0  0  0
    1.6581    5.6548    2.1333 C   0  0  1  0  0  0  0  0  0  0  0  0
    0.5783    5.2875    3.0906 C   0  0  0  0  0  0  0  0  0  0  0  0
   -0.6576    6.1215    2.7375 C   0  0  0  0  0  0  0  0  0  0  0  0
    0.2823    3.8289    3.0615 C   0  0  0  0  0  0  0  0  0  0  0  0
    1.9509    7.0894    2.2161 N   0  0  0  0  0  0  0  0  0  0  0  0
    2.0324    7.7707    0.9651 C   0  0  0  0  0  0  0  0  0  0  0  0
    1.8487    7.1293   -0.0957 O   0  0  0  0  0  0  0  0  0  0  0  0
    2.3312    9.2172    0.8440 C   0  0  0  0  0  0  0  0  0  0  0  0
    2.6238    9.6021   -0.5936 C   0  0  0  0  0  0  0  0  0  0  0  0
    3.8148    8.8799   -1.1563 C   0  0  0  0  0  0  0  0  0  0  0  0
    4.0411    9.3339   -2.5736 C   0  0  0  0  0  0  0  0  0  0  0  0
    4.3723   10.7833   -2.7171 C   0  0  0  0  0  0  0  0  0  0  0  0
    5.6032   11.1406   -2.0466 N   0  0  0  0  0  0  0  0  0  0  0  0
    5.8459   11.5988   -0.7322 C   0  0  0  0  0  0  0  0  0  0  0  0
    5.0278   11.8186    0.1867 O   0  0  0  0  0  0  0  0  0  0  0  0
    7.2924   11.7917   -0.5966 C   0  0  0  0  0  0  0  0  0  0  0  0
    7.9043   11.4859   -1.7110 C   0  0  0  0  0  0  0  0  0  0  0  0
    6.8966   11.0583   -2.6961 C   0  0  0  0  0  0  0  0  0  0  0  0
    7.0762   10.6872   -3.8746 O   0  0  0  0  0  0  0  0  0  0  0  0
    2.7303   -5.1226   -5.1884 H   0  0  0  0  0  0  0  0  0  0  0  0
    2.3787   -3.5507   -5.9279 H   0  0  0  0  0  0  0  0  0  0  0  0
    1.4794   -5.0203   -6.4595 H   0  0  0  0  0  0  0  0  0  0  0  0
    1.0448   -4.9543   -3.7462 H   0  0  0  0  0  0  0  0  0  0  0  0
   -0.1250   -4.2369   -4.8896 H   0  0  0  0  0  0  0  0  0  0  0  0
    1.3516   -2.1358   -4.7543 H   0  0  0  0  0  0  0  0  0  0  0  0
    3.3955   -2.4036   -3.7481 H   0  0  0  0  0  0  0  0  0  0  0  0
    2.5978   -2.9462   -2.1530 H   0  0  0  0  0  0  0  0  0  0  0  0
    2.9102   -4.0616   -3.4620 H   0  0  0  0  0  0  0  0  0  0  0  0
    0.1254   -3.1181   -2.1281 H   0  0  0  0  0  0  0  0  0  0  0  0
    0.6548   -0.3625   -3.2538 H   0  0  0  0  0  0  0  0  0  0  0  0
   -1.3944    0.1508   -2.5930 H   0  0  0  0  0  0  0  0  0  0  0  0
   -0.2697    0.6929   -1.3634 H   0  0  0  0  0  0  0  0  0  0  0  0
    0.7506    0.1184    0.7571 H   0  0  0  0  0  0  0  0  0  0  0  0
   -0.3802    1.4475    0.9068 H   0  0  0  0  0  0  0  0  0  0  0  0
    0.9520   -0.1306    2.9814 H   0  0  0  0  0  0  0  0  0  0  0  0
   -0.3519    0.9957    3.3256 H   0  0  0  0  0  0  0  0  0  0  0  0
   -1.2347   -1.2686    3.9209 H   0  0  0  0  0  0  0  0  0  0  0  0
   -0.3234   -1.9718    2.5593 H   0  0  0  0  0  0  0  0  0  0  0  0
   -2.4372   -1.9482    1.7333 H   0  0  0  0  0  0  0  0  0  0  0  0
   -3.7665    0.1789    1.4407 H   0  0  0  0  0  0  0  0  0  0  0  0
   -3.5159   -1.0526    4.2237 H   0  0  0  0  0  0  0  0  0  0  0  0
   -5.7318    0.6795    2.9332 H   0  0  0  0  0  0  0  0  0  0  0  0
   -4.5438    1.3859    4.1828 H   0  0  0  0  0  0  0  0  0  0  0  0
   -5.6772    0.1027    4.6087 H   0  0  0  0  0  0  0  0  0  0  0  0
   -5.7695   -2.1391    4.5907 H   0  0  0  0  0  0  0  0  0  0  0  0
   -6.4236   -3.6116    1.9934 H   0  0  0  0  0  0  0  0  0  0  0  0
   -8.6052   -3.1776    2.3233 H   0  0  0  0  0  0  0  0  0  0  0  0
   -8.0188   -1.8221    3.4022 H   0  0  0  0  0  0  0  0  0  0  0  0
   -8.4253   -3.3898    4.1010 H   0  0  0  0  0  0  0  0  0  0  0  0
   -6.6263   -4.5745    4.9059 H   0  0  0  0  0  0  0  0  0  0  0  0
   -8.7671   -5.5927    4.9417 H   0  0  0  0  0  0  0  0  0  0  0  0
  -10.3663   -7.1514    4.0202 H   0  0  0  0  0  0  0  0  0  0  0  0
   -9.9122   -8.1641    1.7702 H   0  0  0  0  0  0  0  0  0  0  0  0
   -7.8761   -7.5643    0.5508 H   0  0  0  0  0  0  0  0  0  0  0  0
   -6.2231   -5.9474    1.5082 H   0  0  0  0  0  0  0  0  0  0  0  0
   -4.5303   -4.8638    4.4260 H   0  0  0  0  0  0  0  0  0  0  0  0
   -2.7395    2.1359    0.7573 H   0  0  0  0  0  0  0  0  0  0  0  0
   -2.4095    3.1832    2.1388 H   0  0  0  0  0  0  0  0  0  0  0  0
   -4.0428    2.5614    1.9746 H   0  0  0  0  0  0  0  0  0  0  0  0
    3.3629   -0.2158   -1.3148 H   0  0  0  0  0  0  0  0  0  0  0  0
    2.8999   -0.1978   -3.0298 H   0  0  0  0  0  0  0  0  0  0  0  0
    2.1106    0.9268   -1.8612 H   0  0  0  0  0  0  0  0  0  0  0  0
   -1.3977   -2.0187   -5.7567 H   0  0  0  0  0  0  0  0  0  0  0  0
   -2.0904   -0.8747   -4.6142 H   0  0  0  0  0  0  0  0  0  0  0  0
   -0.2624   -0.9239   -4.9769 H   0  0  0  0  0  0  0  0  0  0  0  0
   -3.2350   -4.0822   -1.9169 H   0  0  0  0  0  0  0  0  0  0  0  0
   -3.1497   -6.3994   -2.6004 H   0  0  0  0  0  0  0  0  0  0  0  0
   -1.3029   -6.5026   -4.1311 H   0  0  0  0  0  0  0  0  0  0  0  0
   -2.8163   -7.0159   -4.8737 H   0  0  0  0  0  0  0  0  0  0  0  0
   -2.1760   -5.4196   -5.3366 H   0  0  0  0  0  0  0  0  0  0  0  0
   -4.7569   -4.2552   -3.1574 H   0  0  0  0  0  0  0  0  0  0  0  0
   -5.1618   -5.9404   -3.4825 H   0  0  0  0  0  0  0  0  0  0  0  0
   -4.5359   -4.9219   -4.8671 H   0  0  0  0  0  0  0  0  0  0  0  0
   -0.5264   -5.2947   -2.1349 H   0  0  0  0  0  0  0  0  0  0  0  0
   -0.4524   -4.7003    1.4891 H   0  0  0  0  0  0  0  0  0  0  0  0
   -0.4267   -6.8883    2.2010 H   0  0  0  0  0  0  0  0  0  0  0  0
   -2.5919   -6.6154    3.0944 H   0  0  0  0  0  0  0  0  0  0  0  0
   -2.2910   -5.0231    2.3927 H   0  0  0  0  0  0  0  0  0  0  0  0
   -3.3235   -6.1936    1.5453 H   0  0  0  0  0  0  0  0  0  0  0  0
   -1.9046   -7.2960   -0.4352 H   0  0  0  0  0  0  0  0  0  0  0  0
   -2.4943   -8.2117    0.9587 H   0  0  0  0  0  0  0  0  0  0  0  0
   -0.8421   -8.5463    0.4185 H   0  0  0  0  0  0  0  0  0  0  0  0
    0.3533   -7.2865   -1.2405 H   0  0  0  0  0  0  0  0  0  0  0  0
    1.9585   -7.3730   -0.5178 H   0  0  0  0  0  0  0  0  0  0  0  0
    1.6234   -6.1263   -1.7016 H   0  0  0  0  0  0  0  0  0  0  0  0
    5.2493   -5.4506    0.7608 H   0  0  0  0  0  0  0  0  0  0  0  0
    4.3806   -5.5209    2.3128 H   0  0  0  0  0  0  0  0  0  0  0  0
    5.3715   -3.1609   -0.4110 H   0  0  0  0  0  0  0  0  0  0  0  0
    5.7673   -0.8070    0.0738 H   0  0  0  0  0  0  0  0  0  0  0  0
    4.2023   -1.3134    4.0091 H   0  0  0  0  0  0  0  0  0  0  0  0
    3.8058   -3.6804    3.5070 H   0  0  0  0  0  0  0  0  0  0  0  0
    6.2063    0.8506    2.6361 H   0  0  0  0  0  0  0  0  0  0  0  0
    4.8672    3.2631    3.1761 H   0  0  0  0  0  0  0  0  0  0  0  0
    6.2384    2.9292    1.2202 H   0  0  0  0  0  0  0  0  0  0  0  0
    5.3356    4.5287    1.3388 H   0  0  0  0  0  0  0  0  0  0  0  0
    4.6086    2.1300   -0.4339 H   0  0  0  0  0  0  0  0  0  0  0  0
    3.6986    3.6512   -0.3465 H   0  0  0  0  0  0  0  0  0  0  0  0
    5.6242    4.9136   -1.0765 H   0  0  0  0  0  0  0  0  0  0  0  0
    6.6220    3.4133   -1.2391 H   0  0  0  0  0  0  0  0  0  0  0  0
    5.5758    3.0636   -3.3399 H   0  0  0  0  0  0  0  0  0  0  0  0
    3.4456    4.6776   -5.0902 H   0  0  0  0  0  0  0  0  0  0  0  0
    2.7464    3.1036   -4.5872 H   0  0  0  0  0  0  0  0  0  0  0  0
    2.3292    2.9988    1.5560 H   0  0  0  0  0  0  0  0  0  0  0  0
    1.3591    5.4131    1.1098 H   0  0  0  0  0  0  0  0  0  0  0  0
    0.8072    5.5610    4.1424 H   0  0  0  0  0  0  0  0  0  0  0  0
   -0.6851    6.3215    1.6509 H   0  0  0  0  0  0  0  0  0  0  0  0
   -0.5990    7.0772    3.2592 H   0  0  0  0  0  0  0  0  0  0  0  0
   -1.5778    5.5860    3.0924 H   0  0  0  0  0  0  0  0  0  0  0  0
   -0.6463    3.6561    3.6614 H   0  0  0  0  0  0  0  0  0  0  0  0
    0.0583    3.5219    2.0334 H   0  0  0  0  0  0  0  0  0  0  0  0
    1.0729    3.2511    3.5563 H   0  0  0  0  0  0  0  0  0  0  0  0
    2.0931    7.5896    3.1146 H   0  0  0  0  0  0  0  0  0  0  0  0
    3.1106    9.5729    1.5151 H   0  0  0  0  0  0  0  0  0  0  0  0
    1.3695    9.7633    1.0878 H   0  0  0  0  0  0  0  0  0  0  0  0
    1.7204    9.3254   -1.2164 H   0  0  0  0  0  0  0  0  0  0  0  0
    2.7516   10.6829   -0.6635 H   0  0  0  0  0  0  0  0  0  0  0  0
    4.6944    9.1993   -0.5330 H   0  0  0  0  0  0  0  0  0  0  0  0
    3.7697    7.7953   -1.0870 H   0  0  0  0  0  0  0  0  0  0  0  0
    4.8512    8.7414   -3.0539 H   0  0  0  0  0  0  0  0  0  0  0  0
    3.1295    9.1363   -3.1958 H   0  0  0  0  0  0  0  0  0  0  0  0
    4.5026   11.0369   -3.7968 H   0  0  0  0  0  0  0  0  0  0  0  0
    3.5634   11.4557   -2.3610 H   0  0  0  0  0  0  0  0  0  0  0  0
    7.8138   12.1350    0.2883 H   0  0  0  0  0  0  0  0  0  0  0  0
    8.9584   11.5275   -1.9112 H   0  0  0  0  0  0  0  0  0  0  0  0
  1  2  1  0
  2  3  1  0
  3  4  1  0
  3  5  1  0
  5  6  1  0
  6  7  1  0
  7  8  1  0
  8  9  2  0
  8 10  1  0
 10 11  1  0
 11 12  1  0
 12 13  1  0
 13 14  1  0
 14 15  1  0
 15 16  1  0
 16 17  1  0
 16 18  1  0
 18 19  2  0
 18 20  1  0
 20 21  1  0
 21 22  1  0
 21 23  1  0
 23 24  1  0
 24 25  2  0
 25 26  1  0
 26 27  2  0
 27 28  1  0
 28 29  2  0
 23 30  1  0
 15 31  1  0
 31 32  1  0
  6 33  1  0
 33 34  1  0
  5 35  1  0
 35 36  1  0
 35 37  1  0
 37 38  2  0
 37 39  1  0
 39 40  1  0
 40 41  1  0
 40 42  1  0
 39 43  1  0
 43 44  1  0
 44 45  2  0
 44 46  1  0
 46 47  1  0
 47 48  1  0
 47 49  1  0
 46 50  1  0
 50 51  1  0
 50 52  1  0
 52 53  2  0
 52 54  1  0
 54 55  1  0
 55 56  1  0
 56 57  1  0
 57 58  2  0
 58 59  1  0
 59 60  2  0
 60 61  1  0
 59 62  1  0
 62 63  1  0
 63 64  2  0
 63 65  1  0
 65 66  1  0
 66 67  1  0
 67 68  1  0
 68 69  1  0
 69 70  1  0
 70 71  2  0
 70 72  1  0
 65 73  1  0
 73 74  1  0
 74 75  2  0
 74 76  1  0
 76 77  1  0
 77 78  1  0
 77 79  1  0
 76 80  1  0
 80 81  1  0
 81 82  2  0
 81 83  1  0
 83 84  1  0
 84 85  1  0
 85 86  1  0
 86 87  1  0
 87 88  1  0
 88 89  1  0
 89 90  2  0
 89 91  1  0
 91 92  2  0
 92 93  1  0
 93 94  2  0
 14 10  1  0
 29 24  1  0
 61 56  2  0
 93 88  1  0
  1 95  1  0
  1 96  1  0
  1 97  1  0
  2 98  1  0
  2 99  1  0
  3100  1  6
  4101  1  0
  4102  1  0
  4103  1  0
  5104  1  1
  6105  1  6
  7106  1  0
  7107  1  0
 11108  1  0
 11109  1  0
 12110  1  0
 12111  1  0
 13112  1  0
 13113  1  0
 14114  1  6
 15115  1  6
 16116  1  1
 17117  1  0
 17118  1  0
 17119  1  0
 20120  1  0
 21121  1  6
 22122  1  0
 22123  1  0
 22124  1  0
 23125  1  1
 25126  1  0
 26127  1  0
 27128  1  0
 28129  1  0
 29130  1  0
 30131  1  0
 32132  1  0
 32133  1  0
 32134  1  0
 34135  1  0
 34136  1  0
 34137  1  0
 36138  1  0
 36139  1  0
 36140  1  0
 39141  1  1
 40142  1  0
 41143  1  0
 41144  1  0
 41145  1  0
 42146  1  0
 42147  1  0
 42148  1  0
 43149  1  0
 46150  1  1
 47151  1  0
 48152  1  0
 48153  1  0
 48154  1  0
 49155  1  0
 49156  1  0
 49157  1  0
 51158  1  0
 51159  1  0
 51160  1  0
 55161  1  0
 55162  1  0
 57163  1  0
 58164  1  0
 60165  1  0
 61166  1  0
 62167  1  0
 65168  1  1
 66169  1  0
 66170  1  0
 67171  1  0
 67172  1  0
 68173  1  0
 68174  1  0
 69175  1  0
 72176  1  0
 72177  1  0
 73178  1  0
 76179  1  6
 77180  1  0
 78181  1  0
 78182  1  0
 78183  1  0
 79184  1  0
 79185  1  0
 79186  1  0
 80187  1  0
 83188  1  0
 83189  1  0
 84190  1  0
 84191  1  0
 85192  1  0
 85193  1  0
 86194  1  0
 86195  1  0
 87196  1  0
 87197  1  0
 91198  1  0
 92199  1  0
M  END
$$$$

     RDKit          3D

199202  0  0  0  0  0  0  0  0999 V2000
    1.3263    2.7635    4.1975 C   0  0  0  0  0  0  0  0  0  0  0  0
    1.3595    1.8527    2.9927 C   0  0  0  0  0  0  0  0  0  0  0  0
    0.8853    0.4463    3.4326 C   0  0  2  0  0  0  0  0  0  0  0  0
    1.9108    0.0447    4.4809 C   0  0  0  0  0  0  0  0  0  0  0  0
    0.8251   -0.4557    2.2507 C   0  0  1  0  0  0  0  0  0  0  0  0
    0.3793   -1.8985    2.5620 C   0  0  1  0  0  0  0  0  0  0  0  0
   -0.9745   -2.0765    3.0978 C   0  0  0  0  0  0  0  0  0  0  0  0
   -1.3466   -3.4578    3.3920 C   0  0  0  0  0  0  0  0  0  0  0  0
   -0.8051   -4.3374    2.6099 O   0  0  0  0  0  0  0  0  0  0  0  0
   -2.1831   -3.9969    4.3655 N   0  0  0  0  0  0  0  0  0  0  0  0
   -2.4402   -5.4867    4.3324 C   0  0  0  0  0  0  0  0  0  0  0  0
   -2.2361   -5.8150    5.7814 C   0  0  0  0  0  0  0  0  0  0  0  0
   -2.2790   -4.4949    6.5624 C   0  0  0  0  0  0  0  0  0  0  0  0
   -2.9303   -3.5939    5.5096 C   0  0  1  0  0  0  0  0  0  0  0  0
   -3.0644   -2.2067    5.9164 C   0  0  1  0  0  0  0  0  0  0  0  0
   -2.0256   -1.4967    6.6611 C   0  0  1  0  0  0  0  0  0  0  0  0
   -2.5429   -0.0370    6.8340 C   0  0  0  0  0  0  0  0  0  0  0  0
   -1.7689   -1.8976    8.0634 C   0  0  0  0  0  0  0  0  0  0  0  0
   -0.6092   -2.3108    8.4080 O   0  0  0  0  0  0  0  0  0  0  0  0
   -2.7267   -1.8672    9.1183 N   0  0  0  0  0  0  0  0  0  0  0  0
   -2.3532   -2.2892   10.4870 C   0  0  2  0  0  0  0  0  0  0  0  0
   -3.2413   -3.3598   11.0248 C   0  0  0  0  0  0  0  0  0  0  0  0
   -2.2517   -1.0828   11.4001 C   0  0  1  0  0  0  0  0  0  0  0  0
   -1.1398   -0.1870   10.9654 C   0  0  0  0  0  0  0  0  0  0  0  0
    0.1483   -0.2998   11.5160 C   0  0  0  0  0  0  0  0  0  0  0  0
    1.1693    0.5668   11.0821 C   0  0  0  0  0  0  0  0  0  0  0  0
    0.9301    1.5261   10.1194 C   0  0  0  0  0  0  0  0  0  0  0  0
   -0.3454    1.5983    9.6061 C   0  0  0  0  0  0  0  0  0  0  0  0
   -1.3696    0.7769   10.0035 C   0  0  0  0  0  0  0  0  0  0  0  0
   -3.4359   -0.3776   11.5182 O   0  0  0  0  0  0  0  0  0  0  0  0
   -3.6514   -1.4528    4.8751 O   0  0  0  0  0  0  0  0  0  0  0  0
   -4.9968   -1.1559    5.1968 C   0  0  0  0  0  0  0  0  0  0  0  0
    0.7421   -2.7037    1.4858 O   0  0  0  0  0  0  0  0  0  0  0  0
    1.8579   -3.4783    1.6847 C   0  0  0  0  0  0  0  0  0  0  0  0
    0.2747    0.0736    1.0439 N   0  0  0  0  0  0  0  0  0  0  0  0
    1.2426    0.0767   -0.1153 C   0  0  0  0  0  0  0  0  0  0  0  0
   -0.9879    0.5842    0.7437 C   0  0  0  0  0  0  0  0  0  0  0  0
   -1.2038    0.7838   -0.5248 O   0  0  0  0  0  0  0  0  0  0  0  0
   -2.1150    0.9274    1.6016 C   0  0  1  0  0  0  0  0  0  0  0  0
   -2.2117    2.4237    1.8953 C   0  0  0  0  0  0  0  0  0  0  0  0
   -3.4504    2.6091    2.7823 C   0  0  0  0  0  0  0  0  0  0  0  0
   -2.2428    3.3340    0.7466 C   0  0  0  0  0  0  0  0  0  0  0  0
   -3.3910    0.4229    1.1049 N   0  0  0  0  0  0  0  0  0  0  0  0
   -3.9557    0.6795   -0.1350 C   0  0  0  0  0  0  0  0  0  0  0  0
   -3.5134    1.4181   -1.0473 O   0  0  0  0  0  0  0  0  0  0  0  0
   -5.3054    0.0104   -0.5822 C   0  0  1  0  0  0  0  0  0  0  0  0
   -6.3346    0.3392    0.3641 C   0  0  0  0  0  0  0  0  0  0  0  0
   -6.6375    1.8110    0.5703 C   0  0  0  0  0  0  0  0  0  0  0  0
   -7.6317   -0.4448    0.1576 C   0  0  0  0  0  0  0  0  0  0  0  0
   -5.3316    0.1734   -1.9745 N   0  0  0  0  0  0  0  0  0  0  0  0
   -4.8201   -0.9959   -2.7634 C   0  0  0  0  0  0  0  0  0  0  0  0
   -5.8044    1.2879   -2.7582 C   0  0  0  0  0  0  0  0  0  0  0  0
   -6.6036    2.1450   -2.2967 O   0  0  0  0  0  0  0  0  0  0  0  0
   -5.3526    1.3953   -3.9966 O   0  0  0  0  0  0  0  0  0  0  0  0
   -5.5669    2.2477   -5.0712 C   0  0  0  0  0  0  0  0  0  0  0  0
   -4.3963    2.0132   -6.0062 C   0  0  0  0  0  0  0  0  0  0  0  0
   -4.2705    1.0525   -6.9359 C   0  0  0  0  0  0  0  0  0  0  0  0
   -3.0242    0.9420   -7.5739 C   0  0  0  0  0  0  0  0  0  0  0  0
   -1.9674    1.7428   -7.3054 C   0  0  0  0  0  0  0  0  0  0  0  0
   -2.1154    2.7547   -6.3282 C   0  0  0  0  0  0  0  0  0  0  0  0
   -3.3144    2.8754   -5.6963 C   0  0  0  0  0  0  0  0  0  0  0  0
   -0.6510    1.6571   -7.7987 N   0  0  0  0  0  0  0  0  0  0  0  0
   -0.1561    1.9457   -9.0618 C   0  0  0  0  0  0  0  0  0  0  0  0
   -0.8693    2.3245  -10.0533 O   0  0  0  0  0  0  0  0  0  0  0  0
    1.3041    1.8215   -9.3127 C   0  0  1  0  0  0  0  0  0  0  0  0
    1.8485    2.9458  -10.1610 C   0  0  0  0  0  0  0  0  0  0  0  0
    3.2947    2.7704  -10.4367 C   0  0  0  0  0  0  0  0  0  0  0  0
    3.6283    1.4844  -11.1976 C   0  0  0  0  0  0  0  0  0  0  0  0
    5.0738    1.4197  -11.4090 N   0  0  0  0  0  0  0  0  0  0  0  0
    5.7366    0.3654  -12.0595 C   0  0  0  0  0  0  0  0  0  0  0  0
    5.0121   -0.5878  -12.4934 O   0  0  0  0  0  0  0  0  0  0  0  0
    7.1417    0.3588  -12.2248 N   0  0  0  0  0  0  0  0  0  0  0  0
    2.0471    1.7313   -8.0716 N   0  0  0  0  0  0  0  0  0  0  0  0
    2.6650    2.8061   -7.4167 C   0  0  0  0  0  0  0  0  0  0  0  0
    2.6012    4.0283   -7.8595 O   0  0  0  0  0  0  0  0  0  0  0  0
    3.4654    2.7153   -6.1621 C   0  0  1  0  0  0  0  0  0  0  0  0
    3.0939    3.8476   -5.2530 C   0  0  0  0  0  0  0  0  0  0  0  0
    3.9132    3.7655   -3.9600 C   0  0  0  0  0  0  0  0  0  0  0  0
    3.4080    5.1738   -5.8555 C   0  0  0  0  0  0  0  0  0  0  0  0
    3.5291    1.4568   -5.5300 N   0  0  0  0  0  0  0  0  0  0  0  0
    4.4055    0.3835   -5.8421 C   0  0  0  0  0  0  0  0  0  0  0  0
    5.1999    0.4838   -6.7853 O   0  0  0  0  0  0  0  0  0  0  0  0
    4.3047   -0.8349   -4.9790 C   0  0  0  0  0  0  0  0  0  0  0  0
    4.7570   -2.0995   -5.6387 C   0  0  0  0  0  0  0  0  0  0  0  0
    4.7319   -3.2667   -4.6381 C   0  0  0  0  0  0  0  0  0  0  0  0
    5.8129   -3.0356   -3.6349 C   0  0  0  0  0  0  0  0  0  0  0  0
    5.8523   -4.0346   -2.4934 C   0  0  0  0  0  0  0  0  0  0  0  0
    7.0229   -3.7827   -1.6551 N   0  0  0  0  0  0  0  0  0  0  0  0
    8.2513   -4.4814   -1.8550 C   0  0  0  0  0  0  0  0  0  0  0  0
    8.4613   -5.3620   -2.7039 O   0  0  0  0  0  0  0  0  0  0  0  0
    9.1706   -3.9456   -0.8663 C   0  0  0  0  0  0  0  0  0  0  0  0
    8.5799   -3.0356   -0.1526 C   0  0  0  0  0  0  0  0  0  0  0  0
    7.1723   -2.8479   -0.5839 C   0  0  0  0  0  0  0  0  0  0  0  0
    6.3130   -2.0657   -0.1281 O   0  0  0  0  0  0  0  0  0  0  0  0
    0.7668    3.6876    3.8880 H   0  0  0  0  0  0  0  0  0  0  0  0
    0.7270    2.3595    5.0401 H   0  0  0  0  0  0  0  0  0  0  0  0
    2.3331    3.1070    4.5306 H   0  0  0  0  0  0  0  0  0  0  0  0
    2.4636    1.7726    2.7372 H   0  0  0  0  0  0  0  0  0  0  0  0
    0.8843    2.2125    2.0998 H   0  0  0  0  0  0  0  0  0  0  0  0
   -0.0444    0.6039    3.9720 H   0  0  0  0  0  0  0  0  0  0  0  0
    1.7692    0.6092    5.4348 H   0  0  0  0  0  0  0  0  0  0  0  0
    2.9141    0.4086    4.0939 H   0  0  0  0  0  0  0  0  0  0  0  0
    2.0361   -1.0207    4.6316 H   0  0  0  0  0  0  0  0  0  0  0  0
    1.9619   -0.6824    2.0864 H   0  0  0  0  0  0  0  0  0  0  0  0
    1.1016   -2.2087    3.3634 H   0  0  0  0  0  0  0  0  0  0  0  0
   -1.7658   -1.7343    2.3318 H   0  0  0  0  0  0  0  0  0  0  0  0
   -1.1488   -1.4260    3.9379 H   0  0  0  0  0  0  0  0  0  0  0  0
   -3.5078   -5.5732    4.0246 H   0  0  0  0  0  0  0  0  0  0  0  0
   -1.7787   -6.0028    3.6539 H   0  0  0  0  0  0  0  0  0  0  0  0
   -1.2475   -6.3120    5.9187 H   0  0  0  0  0  0  0  0  0  0  0  0
   -3.0138   -6.5270    6.0970 H   0  0  0  0  0  0  0  0  0  0  0  0
   -1.2315   -4.2287    6.7017 H   0  0  0  0  0  0  0  0  0  0  0  0
   -2.8843   -4.6610    7.4439 H   0  0  0  0  0  0  0  0  0  0  0  0
   -3.9650   -4.0306    5.3866 H   0  0  0  0  0  0  0  0  0  0  0  0
   -3.9752   -2.2281    6.6616 H   0  0  0  0  0  0  0  0  0  0  0  0
   -1.0631   -1.4977    6.1642 H   0  0  0  0  0  0  0  0  0  0  0  0
   -3.3109   -0.0211    7.5979 H   0  0  0  0  0  0  0  0  0  0  0  0
   -1.6886    0.6261    7.1305 H   0  0  0  0  0  0  0  0  0  0  0  0
   -2.9556    0.2896    5.8776 H   0  0  0  0  0  0  0  0  0  0  0  0
   -3.6917   -1.5404    8.8961 H   0  0  0  0  0  0  0  0  0  0  0  0
   -1.3128   -2.6858   10.4263 H   0  0  0  0  0  0  0  0  0  0  0  0
   -3.2612   -3.2706   12.1325 H   0  0  0  0  0  0  0  0  0  0  0  0
   -2.7923   -4.3802   10.8539 H   0  0  0  0  0  0  0  0  0  0  0  0
   -4.2950   -3.2922   10.6817 H   0  0  0  0  0  0  0  0  0  0  0  0
   -1.9858   -1.4698   12.4088 H   0  0  0  0  0  0  0  0  0  0  0  0
    0.3510   -1.0615   12.2838 H   0  0  0  0  0  0  0  0  0  0  0  0
    2.1679    0.5159   11.4705 H   0  0  0  0  0  0  0  0  0  0  0  0
    1.6913    2.2109    9.7589 H   0  0  0  0  0  0  0  0  0  0  0  0
   -0.6118    2.3366    8.8303 H   0  0  0  0  0  0  0  0  0  0  0  0
   -2.3844    0.8228    9.6155 H   0  0  0  0  0  0  0  0  0  0  0  0
   -3.8069   -0.2992   10.5982 H   0  0  0  0  0  0  0  0  0  0  0  0
   -5.4267   -0.5427    4.3879 H   0  0  0  0  0  0  0  0  0  0  0  0
   -5.5694   -2.1417    5.2395 H   0  0  0  0  0  0  0  0  0  0  0  0
   -5.0732   -0.7181    6.2003 H   0  0  0  0  0  0  0  0  0  0  0  0
    1.8490   -4.2155    2.4669 H   0  0  0  0  0  0  0  0  0  0  0  0
    2.1585   -3.9846    0.7296 H   0  0  0  0  0  0  0  0  0  0  0  0
    2.7167   -2.7500    1.8644 H   0  0  0  0  0  0  0  0  0  0  0  0
    1.0094   -0.7376   -0.8031 H   0  0  0  0  0  0  0  0  0  0  0  0
    2.2675    0.0163    0.2881 H   0  0  0  0  0  0  0  0  0  0  0  0
    1.1650    1.0261   -0.6732 H   0  0  0  0  0  0  0  0  0  0  0  0
   -1.9513    0.5196    2.5842 H   0  0  0  0  0  0  0  0  0  0  0  0
   -1.3723    2.7237    2.5533 H   0  0  0  0  0  0  0  0  0  0  0  0
   -3.6806    3.6772    2.7439 H   0  0  0  0  0  0  0  0  0  0  0  0
   -3.1922    2.3396    3.8214 H   0  0  0  0  0  0  0  0  0  0  0  0
   -4.2422    1.9514    2.3867 H   0  0  0  0  0  0  0  0  0  0  0  0
   -3.3089    3.6120    0.5071 H   0  0  0  0  0  0  0  0  0  0  0  0
   -1.8355    4.3472    1.0866 H   0  0  0  0  0  0  0  0  0  0  0  0
   -1.6207    3.0877   -0.1068 H   0  0  0  0  0  0  0  0  0  0  0  0
   -3.9683   -0.2137    1.7556 H   0  0  0  0  0  0  0  0  0  0  0  0
   -4.9689   -1.0766   -0.3574 H   0  0  0  0  0  0  0  0  0  0  0  0
   -5.9716    0.0002    1.3909 H   0  0  0  0  0  0  0  0  0  0  0  0
   -6.6912    2.0740    1.6822 H   0  0  0  0  0  0  0  0  0  0  0  0
   -7.5964    2.1526    0.1789 H   0  0  0  0  0  0  0  0  0  0  0  0
   -5.7425    2.3757    0.2427 H   0  0  0  0  0  0  0  0  0  0  0  0
   -7.5969   -1.3312    0.7845 H   0  0  0  0  0  0  0  0  0  0  0  0
   -7.6801   -0.6643   -0.9236 H   0  0  0  0  0  0  0  0  0  0  0  0
   -8.5321    0.1468    0.4225 H   0  0  0  0  0  0  0  0  0  0  0  0
   -5.6437   -1.7435   -2.7225 H   0  0  0  0  0  0  0  0  0  0  0  0
   -4.5296   -0.6808   -3.7573 H   0  0  0  0  0  0  0  0  0  0  0  0
   -3.9689   -1.4433   -2.2310 H   0  0  0  0  0  0  0  0  0  0  0  0
   -5.5783    3.2860   -4.7679 H   0  0  0  0  0  0  0  0  0  0  0  0
   -6.4680    1.8938   -5.6192 H   0  0  0  0  0  0  0  0  0  0  0  0
   -5.0967    0.4126   -7.1654 H   0  0  0  0  0  0  0  0  0  0  0  0
   -2.8783    0.1662   -8.3374 H   0  0  0  0  0  0  0  0  0  0  0  0
   -1.2999    3.4151   -6.0837 H   0  0  0  0  0  0  0  0  0  0  0  0
   -3.4146    3.6514   -4.9518 H   0  0  0  0  0  0  0  0  0  0  0  0
    0.0695    1.3114   -7.0745 H   0  0  0  0  0  0  0  0  0  0  0  0
    1.5114    0.9073   -9.8910 H   0  0  0  0  0  0  0  0  0  0  0  0
    1.3387    2.8203  -11.1778 H   0  0  0  0  0  0  0  0  0  0  0  0
    1.5854    3.9511   -9.8293 H   0  0  0  0  0  0  0  0  0  0  0  0
    3.9752    2.7229   -9.5591 H   0  0  0  0  0  0  0  0  0  0  0  0
    3.6233    3.6399  -11.0363 H   0  0  0  0  0  0  0  0  0  0  0  0
    3.3378    0.5896  -10.6257 H   0  0  0  0  0  0  0  0  0  0  0  0
    3.1577    1.5480  -12.1962 H   0  0  0  0  0  0  0  0  0  0  0  0
    5.6532    2.2327  -11.0462 H   0  0  0  0  0  0  0  0  0  0  0  0
    7.7366   -0.4883  -12.0536 H   0  0  0  0  0  0  0  0  0  0  0  0
    7.6301    1.2382  -12.5344 H   0  0  0  0  0  0  0  0  0  0  0  0
    2.1471    0.7814   -7.5906 H   0  0  0  0  0  0  0  0  0  0  0  0
    4.5179    2.9369   -6.5570 H   0  0  0  0  0  0  0  0  0  0  0  0
    2.0185    3.7943   -4.9634 H   0  0  0  0  0  0  0  0  0  0  0  0
    4.9699    3.5748   -4.2350 H   0  0  0  0  0  0  0  0  0  0  0  0
    3.4826    3.0274   -3.2868 H   0  0  0  0  0  0  0  0  0  0  0  0
    3.9052    4.8083   -3.5304 H   0  0  0  0  0  0  0  0  0  0  0  0
    2.4883    5.6829   -6.2553 H   0  0  0  0  0  0  0  0  0  0  0  0
    4.2385    5.1325   -6.6140 H   0  0  0  0  0  0  0  0  0  0  0  0
    3.7786    5.8814   -5.0698 H   0  0  0  0  0  0  0  0  0  0  0  0
    2.8299    1.2896   -4.7347 H   0  0  0  0  0  0  0  0  0  0  0  0
    3.1795   -0.9709   -4.8380 H   0  0  0  0  0  0  0  0  0  0  0  0
    4.7597   -0.6491   -4.0031 H   0  0  0  0  0  0  0  0  0  0  0  0
    3.9957   -2.4016   -6.4221 H   0  0  0  0  0  0  0  0  0  0  0  0
    5.7501   -2.0470   -6.1123 H   0  0  0  0  0  0  0  0  0  0  0  0
    3.7610   -3.2275   -4.0956 H   0  0  0  0  0  0  0  0  0  0  0  0
    4.8278   -4.2330   -5.1736 H   0  0  0  0  0  0  0  0  0  0  0  0
    6.7922   -3.0998   -4.2086 H   0  0  0  0  0  0  0  0  0  0  0  0
    5.7881   -2.0367   -3.2372 H   0  0  0  0  0  0  0  0  0  0  0  0
    4.9636   -3.8637   -1.8438 H   0  0  0  0  0  0  0  0  0  0  0  0
    5.8267   -5.0536   -2.8810 H   0  0  0  0  0  0  0  0  0  0  0  0
   10.1858   -4.2718   -0.7639 H   0  0  0  0  0  0  0  0  0  0  0  0
    9.0018   -2.4421    0.6808 H   0  0  0  0  0  0  0  0  0  0  0  0
  1  2  1  0
  2  3  1  0
  3  4  1  0
  3  5  1  0
  5  6  1  0
  6  7  1  0
  7  8  1  0
  8  9  2  0
  8 10  1  0
 10 11  1  0
 11 12  1  0
 12 13  1  0
 13 14  1  0
 14 15  1  0
 15 16  1  0
 16 17  1  0
 16 18  1  0
 18 19  2  0
 18 20  1  0
 20 21  1  0
 21 22  1  0
 21 23  1  0
 23 24  1  0
 24 25  2  0
 25 26  1  0
 26 27  2  0
 27 28  1  0
 28 29  2  0
 23 30  1  0
 15 31  1  0
 31 32  1  0
  6 33  1  0
 33 34  1  0
  5 35  1  0
 35 36  1  0
 35 37  1  0
 37 38  2  0
 37 39  1  0
 39 40  1  0
 40 41  1  0
 40 42  1  0
 39 43  1  0
 43 44  1  0
 44 45  2  0
 44 46  1  0
 46 47  1  0
 47 48  1  0
 47 49  1  0
 46 50  1  0
 50 51  1  0
 50 52  1  0
 52 53  2  0
 52 54  1  0
 54 55  1  0
 55 56  1  0
 56 57  1  0
 57 58  2  0
 58 59  1  0
 59 60  2  0
 60 61  1  0
 59 62  1  0
 62 63  1  0
 63 64  2  0
 63 65  1  0
 65 66  1  0
 66 67  1  0
 67 68  1  0
 68 69  1  0
 69 70  1  0
 70 71  2  0
 70 72  1  0
 65 73  1  0
 73 74  1  0
 74 75  2  0
 74 76  1  0
 76 77  1  0
 77 78  1  0
 77 79  1  0
 76 80  1  0
 80 81  1  0
 81 82  2  0
 81 83  1  0
 83 84  1  0
 84 85  1  0
 85 86  1  0
 86 87  1  0
 87 88  1  0
 88 89  1  0
 89 90  2  0
 89 91  1  0
 91 92  2  0
 92 93  1  0
 93 94  2  0
 14 10  1  0
 29 24  1  0
 61 56  2  0
 93 88  1  0
  1 95  1  0
  1 96  1  0
  1 97  1  0
  2 98  1  0
  2 99  1  0
  3100  1  1
  4101  1  0
  4102  1  0
  4103  1  0
  5104  1  6
  6105  1  1
  7106  1  0
  7107  1  0
 11108  1  0
 11109  1  0
 12110  1  0
 12111  1  0
 13112  1  0
 13113  1  0
 14114  1  6
 15115  1  1
 16116  1  6
 17117  1  0
 17118  1  0
 17119  1  0
 20120  1  0
 21121  1  6
 22122  1  0
 22123  1  0
 22124  1  0
 23125  1  1
 25126  1  0
 26127  1  0
 27128  1  0
 28129  1  0
 29130  1  0
 30131  1  0
 32132  1  0
 32133  1  0
 32134  1  0
 34135  1  0
 34136  1  0
 34137  1  0
 36138  1  0
 36139  1  0
 36140  1  0
 39141  1  1
 40142  1  0
 41143  1  0
 41144  1  0
 41145  1  0
 42146  1  0
 42147  1  0
 42148  1  0
 43149  1  0
 46150  1  6
 47151  1  0
 48152  1  0
 48153  1  0
 48154  1  0
 49155  1  0
 49156  1  0
 49157  1  0
 51158  1  0
 51159  1  0
 51160  1  0
 55161  1  0
 55162  1  0
 57163  1  0
 58164  1  0
 60165  1  0
 61166  1  0
 62167  1  0
 65168  1  6
 66169  1  0
 66170  1  0
 67171  1  0
 67172  1  0
 68173  1  0
 68174  1  0
 69175  1  0
 72176  1  0
 72177  1  0
 73178  1  0
 76179  1  6
 77180  1  0
 78181  1  0
 78182  1  0
 78183  1  0
 79184  1  0
 79185  1  0
 79186  1  0
 80187  1  0
 83188  1  0
 83189  1  0
 84190  1  0
 84191  1  0
 85192  1  0
 85193  1  0
 86194  1  0
 86195  1  0
 87196  1  0
 87197  1  0
 91198  1  0
 92199  1  0
M  END
$$$$

     RDKit          3D

199202  0  0  0  0  0  0  0  0999 V2000
    0.3886    0.2781   -0.0541 C   0  0  0  0  0  0  0  0  0  0  0  0
   -0.5977   -0.7514   -0.5513 C   0  0  0  0  0  0  0  0  0  0  0  0
   -0.2250   -1.3121   -1.9009 C   0  0  2  0  0  0  0  0  0  0  0  0
   -0.1922   -0.1896   -2.9036 C   0  0  0  0  0  0  0  0  0  0  0  0
   -1.2919   -2.3118   -2.3767 C   0  0  1  0  0  0  0  0  0  0  0  0
   -0.8977   -2.8192   -3.6832 C   0  0  1  0  0  0  0  0  0  0  0  0
    0.3823   -3.5801   -3.7058 C   0  0  0  0  0  0  0  0  0  0  0  0
    0.7198   -3.9904   -5.1193 C   0  0  0  0  0  0  0  0  0  0  0  0
    1.3360   -3.0680   -5.7735 O   0  0  0  0  0  0  0  0  0  0  0  0
    0.4203   -5.2151   -5.7012 N   0  0  0  0  0  0  0  0  0  0  0  0
   -0.3072   -6.3882   -5.1538 C   0  0  0  0  0  0  0  0  0  0  0  0
   -1.4289   -6.4951   -6.1901 C   0  0  0  0  0  0  0  0  0  0  0  0
   -0.7358   -6.0681   -7.4772 C   0  0  0  0  0  0  0  0  0  0  0  0
    0.6434   -5.6864   -7.0871 C   0  0  1  0  0  0  0  0  0  0  0  0
    1.4712   -4.8198   -7.9341 C   0  0  1  0  0  0  0  0  0  0  0  0
    2.9549   -5.1912   -7.8635 C   0  0  1  0  0  0  0  0  0  0  0  0
    3.8053   -4.2482   -8.7310 C   0  0  0  0  0  0  0  0  0  0  0  0
    3.5763   -5.4798   -6.5955 C   0  0  0  0  0  0  0  0  0  0  0  0
    3.9317   -6.7227   -6.4120 O   0  0  0  0  0  0  0  0  0  0  0  0
    3.8787   -4.6373   -5.5120 N   0  0  0  0  0  0  0  0  0  0  0  0
    4.5432   -5.1690   -4.3553 C   0  0  2  0  0  0  0  0  0  0  0  0
    3.5541   -5.3084   -3.1909 C   0  0  0  0  0  0  0  0  0  0  0  0
    5.6899   -4.3813   -3.8374 C   0  0  1  0  0  0  0  0  0  0  0  0
    6.7788   -4.1169   -4.8087 C   0  0  0  0  0  0  0  0  0  0  0  0
    6.5833   -3.1175   -5.7686 C   0  0  0  0  0  0  0  0  0  0  0  0
    7.5807   -2.8417   -6.6820 C   0  0  0  0  0  0  0  0  0  0  0  0
    8.7827   -3.5110   -6.7012 C   0  0  0  0  0  0  0  0  0  0  0  0
    8.9865   -4.5019   -5.7587 C   0  0  0  0  0  0  0  0  0  0  0  0
    7.9785   -4.7885   -4.8270 C   0  0  0  0  0  0  0  0  0  0  0  0
    5.2289   -3.0927   -3.4585 O   0  0  0  0  0  0  0  0  0  0  0  0
    1.1933   -5.3344   -9.2968 O   0  0  0  0  0  0  0  0  0  0  0  0
    0.7443   -4.2171  -10.0265 C   0  0  0  0  0  0  0  0  0  0  0  0
   -1.9377   -3.5380   -4.2993 O   0  0  0  0  0  0  0  0  0  0  0  0
   -2.2861   -2.8216   -5.4504 C   0  0  0  0  0  0  0  0  0  0  0  0
   -1.6806   -3.1594   -1.3107 N   0  0  0  0  0  0  0  0  0  0  0  0
   -0.7688   -4.1720   -0.7792 C   0  0  0  0  0  0  0  0  0  0  0  0
   -2.9720   -3.1034   -0.6515 C   0  0  0  0  0  0  0  0  0  0  0  0
   -3.1450   -3.7976    0.4167 O   0  0  0  0  0  0  0  0  0  0  0  0
   -4.1047   -2.3225   -1.0907 C   0  0  1  0  0  0  0  0  0  0  0  0
   -5.2195   -3.3040   -1.5497 C   0  0  0  0  0  0  0  0  0  0  0  0
   -5.6565   -4.2130   -0.4524 C   0  0  0  0  0  0  0  0  0  0  0  0
   -4.7439   -4.0822   -2.7236 C   0  0  0  0  0  0  0  0  0  0  0  0
   -4.6901   -1.5408   -0.0004 N   0  0  0  0  0  0  0  0  0  0  0  0
   -5.4983   -0.4560   -0.4413 C   0  0  0  0  0  0  0  0  0  0  0  0
   -5.6369   -0.3724   -1.7163 O   0  0  0  0  0  0  0  0  0  0  0  0
   -6.1545    0.5472    0.4385 C   0  0  1  0  0  0  0  0  0  0  0  0
   -7.6330    0.4740    0.3661 C   0  0  0  0  0  0  0  0  0  0  0  0
   -8.2083   -0.8575    0.7420 C   0  0  0  0  0  0  0  0  0  0  0  0
   -8.2923    1.5076    1.2686 C   0  0  0  0  0  0  0  0  0  0  0  0
   -5.5416    0.7555    1.6945 N   0  0  0  0  0  0  0  0  0  0  0  0
   -4.6342    1.9531    1.7402 C   0  0  0  0  0  0  0  0  0  0  0  0
   -5.6317    0.0088    2.9160 C   0  0  0  0  0  0  0  0  0  0  0  0
   -6.3576   -1.0017    3.0568 O   0  0  0  0  0  0  0  0  0  0  0  0
   -4.8926    0.4534    3.9345 O   0  0  0  0  0  0  0  0  0  0  0  0
   -4.7311    0.0628    5.2931 C   0  0  0  0  0  0  0  0  0  0  0  0
   -3.7665    1.0772    5.8965 C   0  0  0  0  0  0  0  0  0  0  0  0
   -2.4109    0.8794    5.8719 C   0  0  0  0  0  0  0  0  0  0  0  0
   -1.6031    1.8765    6.3522 C   0  0  0  0  0  0  0  0  0  0  0  0
   -2.0553    3.0955    6.8742 C   0  0  0  0  0  0  0  0  0  0  0  0
   -3.4197    3.2446    6.8808 C   0  0  0  0  0  0  0  0  0  0  0  0
   -4.2802    2.2536    6.4005 C   0  0  0  0  0  0  0  0  0  0  0  0
   -1.0981    4.0064    7.2651 N   0  0  0  0  0  0  0  0  0  0  0  0
   -1.2907    5.3432    7.8496 C   0  0  0  0  0  0  0  0  0  0  0  0
   -2.4779    5.6321    8.0123 O   0  0  0  0  0  0  0  0  0  0  0  0
   -0.0722    6.0533    8.1192 C   0  0  1  0  0  0  0  0  0  0  0  0
    0.0599    6.7710    9.4035 C   0  0  0  0  0  0  0  0  0  0  0  0
   -0.7787    7.9726    9.6745 C   0  0  0  0  0  0  0  0  0  0  0  0
   -2.2443    7.9355    9.6507 C   0  0  0  0  0  0  0  0  0  0  0  0
   -2.7002    9.3236   10.0133 N   0  0  0  0  0  0  0  0  0  0  0  0
   -4.1184    9.4792   10.0410 C   0  0  0  0  0  0  0  0  0  0  0  0
   -4.8026    8.4651    9.7736 O   0  0  0  0  0  0  0  0  0  0  0  0
   -4.6614   10.7496   10.3638 N   0  0  0  0  0  0  0  0  0  0  0  0
    1.1364    5.4366    7.6904 N   0  0  0  0  0  0  0  0  0  0  0  0
    2.3467    5.1807    8.3300 C   0  0  0  0  0  0  0  0  0  0  0  0
    2.6283    5.4402    9.5254 O   0  0  0  0  0  0  0  0  0  0  0  0
    3.4588    4.5302    7.5401 C   0  0  1  0  0  0  0  0  0  0  0  0
    3.5790    3.1140    7.9823 C   0  0  0  0  0  0  0  0  0  0  0  0
    4.7184    2.4639    7.1702 C   0  0  0  0  0  0  0  0  0  0  0  0
    2.3848    2.2356    7.7529 C   0  0  0  0  0  0  0  0  0  0  0  0
    3.0757    4.5326    6.1203 N   0  0  0  0  0  0  0  0  0  0  0  0
    3.8498    5.3246    5.2048 C   0  0  0  0  0  0  0  0  0  0  0  0
    4.8599    5.9696    5.5599 O   0  0  0  0  0  0  0  0  0  0  0  0
    3.3727    5.3464    3.7984 C   0  0  0  0  0  0  0  0  0  0  0  0
    4.3360    5.9593    2.8264 C   0  0  0  0  0  0  0  0  0  0  0  0
    3.7418    6.0796    1.4421 C   0  0  0  0  0  0  0  0  0  0  0  0
    4.7212    6.6440    0.4373 C   0  0  0  0  0  0  0  0  0  0  0  0
    3.9976    6.7999   -0.8833 C   0  0  0  0  0  0  0  0  0  0  0  0
    4.8500    7.3148   -1.9386 N   0  0  0  0  0  0  0  0  0  0  0  0
    5.0741    8.7041   -2.2587 C   0  0  0  0  0  0  0  0  0  0  0  0
    4.5760    9.7052   -1.6816 O   0  0  0  0  0  0  0  0  0  0  0  0
    5.9937    8.7188   -3.3829 C   0  0  0  0  0  0  0  0  0  0  0  0
    6.3239    7.4925   -3.7507 C   0  0  0  0  0  0  0  0  0  0  0  0
    5.6256    6.5575   -2.8632 C   0  0  0  0  0  0  0  0  0  0  0  0
    5.6819    5.2823   -2.8890 O   0  0  0  0  0  0  0  0  0  0  0  0
    0.3409    0.3516    1.0681 H   0  0  0  0  0  0  0  0  0  0  0  0
    0.1885    1.2843   -0.4396 H   0  0  0  0  0  0  0  0  0  0  0  0
    1.4389    0.0144   -0.3113 H   0  0  0  0  0  0  0  0  0  0  0  0
   -1.5902   -0.2101   -0.6066 H   0  0  0  0  0  0  0  0  0  0  0  0
   -0.7889   -1.5349    0.2223 H   0  0  0  0  0  0  0  0  0  0  0  0
    0.7785   -1.7556   -1.8520 H   0  0  0  0  0  0  0  0  0  0  0  0
    0.0991    0.7878   -2.4303 H   0  0  0  0  0  0  0  0  0  0  0  0
    0.4970   -0.3953   -3.7325 H   0  0  0  0  0  0  0  0  0  0  0  0
   -1.2324    0.0122   -3.3080 H   0  0  0  0  0  0  0  0  0  0  0  0
   -2.1836   -1.6084   -2.5702 H   0  0  0  0  0  0  0  0  0  0  0  0
   -0.7409   -1.9265   -4.3704 H   0  0  0  0  0  0  0  0  0  0  0  0
    0.3787   -4.5120   -3.1023 H   0  0  0  0  0  0  0  0  0  0  0  0
    1.2008   -2.9482   -3.3422 H   0  0  0  0  0  0  0  0  0  0  0  0
    0.3563   -7.2423   -5.2252 H   0  0  0  0  0  0  0  0  0  0  0  0
   -0.7156   -6.2029   -4.1631 H   0  0  0  0  0  0  0  0  0  0  0  0
   -2.2037   -5.7816   -5.8813 H   0  0  0  0  0  0  0  0  0  0  0  0
   -1.8006   -7.5310   -6.2571 H   0  0  0  0  0  0  0  0  0  0  0  0
   -1.3412   -5.2796   -7.9328 H   0  0  0  0  0  0  0  0  0  0  0  0
   -0.7537   -6.9314   -8.2023 H   0  0  0  0  0  0  0  0  0  0  0  0
    1.2570   -6.6716   -6.9182 H   0  0  0  0  0  0  0  0  0  0  0  0
    1.2591   -3.7644   -7.9661 H   0  0  0  0  0  0  0  0  0  0  0  0
    2.9899   -6.1613   -8.5158 H   0  0  0  0  0  0  0  0  0  0  0  0
    3.5808   -4.4917   -9.7820 H   0  0  0  0  0  0  0  0  0  0  0  0
    4.8603   -4.5972   -8.5282 H   0  0  0  0  0  0  0  0  0  0  0  0
    3.7099   -3.1993   -8.4494 H   0  0  0  0  0  0  0  0  0  0  0  0
    3.5801   -3.6296   -5.6110 H   0  0  0  0  0  0  0  0  0  0  0  0
    4.8851   -6.2006   -4.5769 H   0  0  0  0  0  0  0  0  0  0  0  0
    2.8297   -6.1208   -3.3427 H   0  0  0  0  0  0  0  0  0  0  0  0
    4.1453   -5.5985   -2.2923 H   0  0  0  0  0  0  0  0  0  0  0  0
    3.1134   -4.3290   -2.9681 H   0  0  0  0  0  0  0  0  0  0  0  0
    6.0916   -4.8363   -2.9144 H   0  0  0  0  0  0  0  0  0  0  0  0
    5.6814   -2.5431   -5.8258 H   0  0  0  0  0  0  0  0  0  0  0  0
    7.4283   -2.0547   -7.4425 H   0  0  0  0  0  0  0  0  0  0  0  0
    9.5255   -3.2489   -7.4464 H   0  0  0  0  0  0  0  0  0  0  0  0
    9.9254   -5.0266   -5.7729 H   0  0  0  0  0  0  0  0  0  0  0  0
    8.1876   -5.5862   -4.0988 H   0  0  0  0  0  0  0  0  0  0  0  0
    5.2354   -2.9907   -2.4628 H   0  0  0  0  0  0  0  0  0  0  0  0
    1.4989   -3.4215  -10.0828 H   0  0  0  0  0  0  0  0  0  0  0  0
    0.4055   -4.5396  -11.0197 H   0  0  0  0  0  0  0  0  0  0  0  0
   -0.1809   -3.8586   -9.4792 H   0  0  0  0  0  0  0  0  0  0  0  0
   -2.6102   -1.8239   -5.0812 H   0  0  0  0  0  0  0  0  0  0  0  0
   -1.4313   -2.7071   -6.1316 H   0  0  0  0  0  0  0  0  0  0  0  0
   -3.1746   -3.2683   -5.9299 H   0  0  0  0  0  0  0  0  0  0  0  0
    0.2826   -3.8955   -0.8379 H   0  0  0  0  0  0  0  0  0  0  0  0
   -0.9251   -5.1496   -1.2656 H   0  0  0  0  0  0  0  0  0  0  0  0
   -1.0191   -4.3741    0.3056 H   0  0  0  0  0  0  0  0  0  0  0  0
   -3.9590   -1.6927   -1.9470 H   0  0  0  0  0  0  0  0  0  0  0  0
   -6.0749   -2.6593   -1.8391 H   0  0  0  0  0  0  0  0  0  0  0  0
   -5.5613   -3.6856    0.5040 H   0  0  0  0  0  0  0  0  0  0  0  0
   -6.7465   -4.4820   -0.5411 H   0  0  0  0  0  0  0  0  0  0  0  0
   -5.0207   -5.1389   -0.3649 H   0  0  0  0  0  0  0  0  0  0  0  0
   -5.5621   -4.8112   -3.0134 H   0  0  0  0  0  0  0  0  0  0  0  0
   -4.5697   -3.4803   -3.6256 H   0  0  0  0  0  0  0  0  0  0  0  0
   -3.8813   -4.7099   -2.4121 H   0  0  0  0  0  0  0  0  0  0  0  0
   -4.5522   -1.7334    0.9999 H   0  0  0  0  0  0  0  0  0  0  0  0
   -5.9145    1.5116   -0.2354 H   0  0  0  0  0  0  0  0  0  0  0  0
   -7.9305    0.7131   -0.6735 H   0  0  0  0  0  0  0  0  0  0  0  0
   -8.7052   -0.7945    1.7142 H   0  0  0  0  0  0  0  0  0  0  0  0
   -7.4791   -1.6864    0.6507 H   0  0  0  0  0  0  0  0  0  0  0  0
   -9.0406   -1.0893    0.0148 H   0  0  0  0  0  0  0  0  0  0  0  0
   -9.1879    1.8815    0.7413 H   0  0  0  0  0  0  0  0  0  0  0  0
   -7.6383    2.3579    1.4881 H   0  0  0  0  0  0  0  0  0  0  0  0
   -8.7037    1.0057    2.1891 H   0  0  0  0  0  0  0  0  0  0  0  0
   -3.9331    1.7895    0.8762 H   0  0  0  0  0  0  0  0  0  0  0  0
   -5.2223    2.8474    1.4793 H   0  0  0  0  0  0  0  0  0  0  0  0
   -4.1335    2.0395    2.6979 H   0  0  0  0  0  0  0  0  0  0  0  0
   -4.2540   -0.9170    5.3141 H   0  0  0  0  0  0  0  0  0  0  0  0
   -5.6293    0.0734    5.8892 H   0  0  0  0  0  0  0  0  0  0  0  0
   -1.9929   -0.0359    5.4885 H   0  0  0  0  0  0  0  0  0  0  0  0
   -0.5178    1.6546    6.3004 H   0  0  0  0  0  0  0  0  0  0  0  0
   -3.8631    4.1218    7.2487 H   0  0  0  0  0  0  0  0  0  0  0  0
   -5.3380    2.3695    6.4126 H   0  0  0  0  0  0  0  0  0  0  0  0
   -0.0730    3.7260    7.1589 H   0  0  0  0  0  0  0  0  0  0  0  0
   -0.0282    7.0321    7.4030 H   0  0  0  0  0  0  0  0  0  0  0  0
   -0.1583    6.0497   10.2738 H   0  0  0  0  0  0  0  0  0  0  0  0
    1.1251    7.1139    9.5827 H   0  0  0  0  0  0  0  0  0  0  0  0
   -0.3656    8.5173   10.5788 H   0  0  0  0  0  0  0  0  0  0  0  0
   -0.4948    8.6960    8.8089 H   0  0  0  0  0  0  0  0  0  0  0  0
   -2.7818    7.2749   10.3079 H   0  0  0  0  0  0  0  0  0  0  0  0
   -2.5908    7.9388    8.5702 H   0  0  0  0  0  0  0  0  0  0  0  0
   -2.0192   10.0731   10.2129 H   0  0  0  0  0  0  0  0  0  0  0  0
   -4.1112   11.4898   10.8526 H   0  0  0  0  0  0  0  0  0  0  0  0
   -5.6691   10.9037   10.0732 H   0  0  0  0  0  0  0  0  0  0  0  0
    1.0948    5.1301    6.6446 H   0  0  0  0  0  0  0  0  0  0  0  0
    4.4015    5.0592    7.6757 H   0  0  0  0  0  0  0  0  0  0  0  0
    3.8183    3.0281    9.0751 H   0  0  0  0  0  0  0  0  0  0  0  0
    5.6294    3.0546    7.2643 H   0  0  0  0  0  0  0  0  0  0  0  0
    4.3700    2.5578    6.0935 H   0  0  0  0  0  0  0  0  0  0  0  0
    4.7937    1.4037    7.4443 H   0  0  0  0  0  0  0  0  0  0  0  0
    1.6162    2.2861    8.5756 H   0  0  0  0  0  0  0  0  0  0  0  0
    1.8345    2.4186    6.8172 H   0  0  0  0  0  0  0  0  0  0  0  0
    2.6752    1.1534    7.7005 H   0  0  0  0  0  0  0  0  0  0  0  0
    2.2953    3.9839    5.7275 H   0  0  0  0  0  0  0  0  0  0  0  0
    2.4098    5.9269    3.7482 H   0  0  0  0  0  0  0  0  0  0  0  0
    3.0934    4.3390    3.4172 H   0  0  0  0  0  0  0  0  0  0  0  0
    5.2484    5.3146    2.6875 H   0  0  0  0  0  0  0  0  0  0  0  0
    4.7246    6.9260    3.1820 H   0  0  0  0  0  0  0  0  0  0  0  0
    3.3663    5.0951    1.1007 H   0  0  0  0  0  0  0  0  0  0  0  0
    2.8761    6.8026    1.4743 H   0  0  0  0  0  0  0  0  0  0  0  0
    5.5046    5.8389    0.2354 H   0  0  0  0  0  0  0  0  0  0  0  0
    5.1712    7.5654    0.8103 H   0  0  0  0  0  0  0  0  0  0  0  0
    3.5220    5.8581   -1.1945 H   0  0  0  0  0  0  0  0  0  0  0  0
    3.1582    7.5425   -0.7827 H   0  0  0  0  0  0  0  0  0  0  0  0
    6.3447    9.6334   -3.8452 H   0  0  0  0  0  0  0  0  0  0  0  0
    6.9892    7.1919   -4.5634 H   0  0  0  0  0  0  0  0  0  0  0  0
  1  2  1  0
  2  3  1  0
  3  4  1  0
  3  5  1  0
  5  6  1  0
  6  7  1  0
  7  8  1  0
  8  9  2  0
  8 10  1  0
 10 11  1  0
 11 12  1  0
 12 13  1  0
 13 14  1  0
 14 15  1  0
 15 16  1  0
 16 17  1  0
 16 18  1  0
 18 19  2  0
 18 20  1  0
 20 21  1  0
 21 22  1  0
 21 23  1  0
 23 24  1  0
 24 25  2  0
 25 26  1  0
 26 27  2  0
 27 28  1  0
 28 29  2  0
 23 30  1  0
 15 31  1  0
 31 32  1  0
  6 33  1  0
 33 34  1  0
  5 35  1  0
 35 36  1  0
 35 37  1  0
 37 38  2  0
 37 39  1  0
 39 40  1  0
 40 41  1  0
 40 42  1  0
 39 43  1  0
 43 44  1  0
 44 45  2  0
 44 46  1  0
 46 47  1  0
 47 48  1  0
 47 49  1  0
 46 50  1  0
 50 51  1  0
 50 52  1  0
 52 53  2  0
 52 54  1  0
 54 55  1  0
 55 56  1  0
 56 57  1  0
 57 58  2  0
 58 59  1  0
 59 60  2  0
 60 61  1  0
 59 62  1  0
 62 63  1  0
 63 64  2  0
 63 65  1  0
 65 66  1  0
 66 67  1  0
 67 68  1  0
 68 69  1  0
 69 70  1  0
 70 71  2  0
 70 72  1  0
 65 73  1  0
 73 74  1  0
 74 75  2  0
 74 76  1  0
 76 77  1  0
 77 78  1  0
 77 79  1  0
 76 80  1  0
 80 81  1  0
 81 82  2  0
 81 83  1  0
 83 84  1  0
 84 85  1  0
 85 86  1  0
 86 87  1  0
 87 88  1  0
 88 89  1  0
 89 90  2  0
 89 91  1  0
 91 92  2  0
 92 93  1  0
 93 94  2  0
 14 10  1  0
 29 24  1  0
 61 56  2  0
 93 88  1  0
  1 95  1  0
  1 96  1  0
  1 97  1  0
  2 98  1  0
  2 99  1  0
  3100  1  1
  4101  1  0
  4102  1  0
  4103  1  0
  5104  1  6
  6105  1  6
  7106  1  0
  7107  1  0
 11108  1  0
 11109  1  0
 12110  1  0
 12111  1  0
 13112  1  0
 13113  1  0
 14114  1  1
 15115  1  6
 16116  1  6
 17117  1  0
 17118  1  0
 17119  1  0
 20120  1  0
 21121  1  6
 22122  1  0
 22123  1  0
 22124  1  0
 23125  1  1
 25126  1  0
 26127  1  0
 27128  1  0
 28129  1  0
 29130  1  0
 30131  1  0
 32132  1  0
 32133  1  0
 32134  1  0
 34135  1  0
 34136  1  0
 34137  1  0
 36138  1  0
 36139  1  0
 36140  1  0
 39141  1  6
 40142  1  0
 41143  1  0
 41144  1  0
 41145  1  0
 42146  1  0
 42147  1  0
 42148  1  0
 43149  1  0
 46150  1  6
 47151  1  0
 48152  1  0
 48153  1  0
 48154  1  0
 49155  1  0
 49156  1  0
 49157  1  0
 51158  1  0
 51159  1  0
 51160  1  0
 55161  1  0
 55162  1  0
 57163  1  0
 58164  1  0
 60165  1  0
 61166  1  0
 62167  1  0
 65168  1  6
 66169  1  0
 66170  1  0
 67171  1  0
 67172  1  0
 68173  1  0
 68174  1  0
 69175  1  0
 72176  1  0
 72177  1  0
 73178  1  0
 76179  1  6
 77180  1  0
 78181  1  0
 78182  1  0
 78183  1  0
 79184  1  0
 79185  1  0
 79186  1  0
 80187  1  0
 83188  1  0
 83189  1  0
 84190  1  0
 84191  1  0
 85192  1  0
 85193  1  0
 86194  1  0
 86195  1  0
 87196  1  0
 87197  1  0
 91198  1  0
 92199  1  0
M  END
$$$$

     RDKit          3D

199202  0  0  0  0  0  0  0  0999 V2000
    3.4349    3.1402    1.7612 C   0  0  0  0  0  0  0  0  0  0  0  0
    3.4223    2.9543    3.2438 C   0  0  0  0  0  0  0  0  0  0  0  0
    2.5417    1.7518    3.6402 C   0  0  2  0  0  0  0  0  0  0  0  0
    2.6348    1.7741    5.1672 C   0  0  0  0  0  0  0  0  0  0  0  0
    3.0815    0.5188    3.0609 C   0  0  1  0  0  0  0  0  0  0  0  0
    4.4800    0.0888    3.5333 C   0  0  1  0  0  0  0  0  0  0  0  0
    4.4487   -1.0180    4.5387 C   0  0  0  0  0  0  0  0  0  0  0  0
    5.7572   -1.4564    5.0830 C   0  0  0  0  0  0  0  0  0  0  0  0
    6.8544   -0.8897    4.9672 O   0  0  0  0  0  0  0  0  0  0  0  0
    5.7478   -2.6836    5.8281 N   0  0  0  0  0  0  0  0  0  0  0  0
    4.5255   -3.5088    6.0528 C   0  0  0  0  0  0  0  0  0  0  0  0
    4.6875   -4.0493    7.4640 C   0  0  0  0  0  0  0  0  0  0  0  0
    6.0645   -3.5992    7.8804 C   0  0  0  0  0  0  0  0  0  0  0  0
    6.7568   -3.3929    6.5331 C   0  0  1  0  0  0  0  0  0  0  0  0
    7.2247   -4.6936    5.9971 C   0  0  1  0  0  0  0  0  0  0  0  0
    8.1844   -4.5751    4.8258 C   0  0  1  0  0  0  0  0  0  0  0  0
    8.6295   -6.0160    4.4514 C   0  0  0  0  0  0  0  0  0  0  0  0
    7.6031   -4.0838    3.5659 C   0  0  0  0  0  0  0  0  0  0  0  0
    6.4043   -3.8949    3.3055 O   0  0  0  0  0  0  0  0  0  0  0  0
    8.5681   -3.7954    2.5217 N   0  0  0  0  0  0  0  0  0  0  0  0
    8.2041   -3.2974    1.2253 C   0  0  2  0  0  0  0  0  0  0  0  0
    8.6642   -4.3269    0.1831 C   0  0  0  0  0  0  0  0  0  0  0  0
    9.0059   -2.0449    0.9993 C   0  0  1  0  0  0  0  0  0  0  0  0
   10.4514   -2.2856    1.0758 C   0  0  0  0  0  0  0  0  0  0  0  0
   11.2039   -2.7384    0.0025 C   0  0  0  0  0  0  0  0  0  0  0  0
   12.5630   -2.9585    0.0816 C   0  0  0  0  0  0  0  0  0  0  0  0
   13.2389   -2.7302    1.2695 C   0  0  0  0  0  0  0  0  0  0  0  0
   12.4938   -2.2809    2.3419 C   0  0  0  0  0  0  0  0  0  0  0  0
   11.1353   -2.0593    2.2655 C   0  0  0  0  0  0  0  0  0  0  0  0
    8.7103   -1.5003   -0.2585 O   0  0  0  0  0  0  0  0  0  0  0  0
    8.0904   -5.2283    7.0121 O   0  0  0  0  0  0  0  0  0  0  0  0
    7.6515   -6.4808    7.3816 C   0  0  0  0  0  0  0  0  0  0  0  0
    5.1035   -0.5213    2.3993 O   0  0  0  0  0  0  0  0  0  0  0  0
    6.2114    0.1094    1.9492 C   0  0  0  0  0  0  0  0  0  0  0  0
    2.2055   -0.5446    2.6511 N   0  0  0  0  0  0  0  0  0  0  0  0
    1.3670   -1.1859    3.6144 C   0  0  0  0  0  0  0  0  0  0  0  0
    2.2187   -0.8698    1.2659 C   0  0  0  0  0  0  0  0  0  0  0  0
    3.0716   -0.1952    0.5659 O   0  0  0  0  0  0  0  0  0  0  0  0
    1.4243   -1.8430    0.5324 C   0  0  1  0  0  0  0  0  0  0  0  0
    1.6462   -3.2675    1.0491 C   0  0  0  0  0  0  0  0  0  0  0  0
    0.7917   -4.2735    0.2781 C   0  0  0  0  0  0  0  0  0  0  0  0
    3.0880   -3.6861    0.8602 C   0  0  0  0  0  0  0  0  0  0  0  0
    0.0072   -1.5879    0.3802 N   0  0  0  0  0  0  0  0  0  0  0  0
   -0.4287   -1.0948   -0.8736 C   0  0  0  0  0  0  0  0  0  0  0  0
    0.4862   -0.8786   -1.7581 O   0  0  0  0  0  0  0  0  0  0  0  0
   -1.7931   -0.7942   -1.3151 C   0  0  1  0  0  0  0  0  0  0  0  0
   -2.8416   -0.4488   -0.3589 C   0  0  0  0  0  0  0  0  0  0  0  0
   -3.1819   -1.5001    0.6645 C   0  0  0  0  0  0  0  0  0  0  0  0
   -4.1305   -0.2094   -1.1709 C   0  0  0  0  0  0  0  0  0  0  0  0
   -1.7202    0.0622   -2.5023 N   0  0  0  0  0  0  0  0  0  0  0  0
   -1.8949   -0.5013   -3.8516 C   0  0  0  0  0  0  0  0  0  0  0  0
   -1.4894    1.4771   -2.3980 C   0  0  0  0  0  0  0  0  0  0  0  0
   -1.4183    1.9220   -1.2284 O   0  0  0  0  0  0  0  0  0  0  0  0
   -1.3695    2.2257   -3.5386 O   0  0  0  0  0  0  0  0  0  0  0  0
   -1.2112    3.6110   -3.5367 C   0  0  0  0  0  0  0  0  0  0  0  0
   -2.4170    4.3097   -3.0066 C   0  0  0  0  0  0  0  0  0  0  0  0
   -3.3818    4.6037   -3.9922 C   0  0  0  0  0  0  0  0  0  0  0  0
   -4.5850    5.1904   -3.6655 C   0  0  0  0  0  0  0  0  0  0  0  0
   -4.7862    5.4700   -2.3281 C   0  0  0  0  0  0  0  0  0  0  0  0
   -3.8681    5.2006   -1.3482 C   0  0  0  0  0  0  0  0  0  0  0  0
   -2.6563    4.6083   -1.6970 C   0  0  0  0  0  0  0  0  0  0  0  0
   -6.0969    6.0395   -2.0277 N   0  0  0  0  0  0  0  0  0  0  0  0
   -7.1486    5.1301   -2.1744 C   0  0  0  0  0  0  0  0  0  0  0  0
   -6.7036    3.9500   -2.5952 O   0  0  0  0  0  0  0  0  0  0  0  0
   -8.5599    5.1764   -1.9887 C   0  0  1  0  0  0  0  0  0  0  0  0
   -9.3993    6.2709   -1.5793 C   0  0  0  0  0  0  0  0  0  0  0  0
   -9.3127    6.9094   -0.2528 C   0  0  0  0  0  0  0  0  0  0  0  0
   -8.0892    7.5738    0.2109 C   0  0  0  0  0  0  0  0  0  0  0  0
   -7.6652    8.6937   -0.6404 N   0  0  0  0  0  0  0  0  0  0  0  0
   -6.5196    9.4653   -0.3319 C   0  0  0  0  0  0  0  0  0  0  0  0
   -5.7882    9.2581    0.6719 O   0  0  0  0  0  0  0  0  0  0  0  0
   -6.1932   10.5268   -1.2162 N   0  0  0  0  0  0  0  0  0  0  0  0
   -9.2231    4.2582   -2.9668 N   0  0  0  0  0  0  0  0  0  0  0  0
   -9.2255    2.8749   -2.8830 C   0  0  0  0  0  0  0  0  0  0  0  0
   -8.5915    2.3656   -1.8734 O   0  0  0  0  0  0  0  0  0  0  0  0
   -9.8291    1.8894   -3.7782 C   0  0  1  0  0  0  0  0  0  0  0  0
  -10.2499    2.2978   -5.1413 C   0  0  0  0  0  0  0  0  0  0  0  0
  -11.3088    3.4117   -5.0044 C   0  0  0  0  0  0  0  0  0  0  0  0
  -11.0673    1.1132   -5.7015 C   0  0  0  0  0  0  0  0  0  0  0  0
   -9.0586    0.6290   -3.7294 N   0  0  0  0  0  0  0  0  0  0  0  0
   -8.4271    0.0777   -4.8707 C   0  0  0  0  0  0  0  0  0  0  0  0
   -8.4270    0.5550   -6.0135 O   0  0  0  0  0  0  0  0  0  0  0  0
   -7.6830   -1.2087   -4.6782 C   0  0  0  0  0  0  0  0  0  0  0  0
   -6.8873   -1.6071   -5.9161 C   0  0  0  0  0  0  0  0  0  0  0  0
   -5.8216   -0.6098   -6.1926 C   0  0  0  0  0  0  0  0  0  0  0  0
   -5.0025   -0.7614   -7.4113 C   0  0  0  0  0  0  0  0  0  0  0  0
   -4.1244   -1.9031   -7.6901 C   0  0  0  0  0  0  0  0  0  0  0  0
   -4.7273   -3.1847   -7.7947 N   0  0  0  0  0  0  0  0  0  0  0  0
   -5.3419   -3.6505   -9.0224 C   0  0  0  0  0  0  0  0  0  0  0  0
   -5.4825   -2.9875  -10.0951 O   0  0  0  0  0  0  0  0  0  0  0  0
   -5.7903   -5.0215   -8.8600 C   0  0  0  0  0  0  0  0  0  0  0  0
   -5.4833   -5.4059   -7.6094 C   0  0  0  0  0  0  0  0  0  0  0  0
   -4.8276   -4.2980   -6.9304 C   0  0  0  0  0  0  0  0  0  0  0  0
   -4.4058   -4.3229   -5.7344 O   0  0  0  0  0  0  0  0  0  0  0  0
    4.1938    2.5585    1.2585 H   0  0  0  0  0  0  0  0  0  0  0  0
    2.4146    3.0397    1.3322 H   0  0  0  0  0  0  0  0  0  0  0  0
    3.6896    4.2311    1.5812 H   0  0  0  0  0  0  0  0  0  0  0  0
    4.4035    2.9305    3.7074 H   0  0  0  0  0  0  0  0  0  0  0  0
    2.8990    3.8348    3.6788 H   0  0  0  0  0  0  0  0  0  0  0  0
    1.5522    1.9870    3.2522 H   0  0  0  0  0  0  0  0  0  0  0  0
    3.6590    1.5468    5.4669 H   0  0  0  0  0  0  0  0  0  0  0  0
    2.4894    2.8613    5.4556 H   0  0  0  0  0  0  0  0  0  0  0  0
    1.8661    1.2327    5.6873 H   0  0  0  0  0  0  0  0  0  0  0  0
    3.4267    0.8902    1.9768 H   0  0  0  0  0  0  0  0  0  0  0  0
    5.0736    0.9120    3.8537 H   0  0  0  0  0  0  0  0  0  0  0  0
    3.7863   -0.8193    5.3945 H   0  0  0  0  0  0  0  0  0  0  0  0
    3.9806   -1.9467    4.0415 H   0  0  0  0  0  0  0  0  0  0  0  0
    3.6433   -2.8394    6.0195 H   0  0  0  0  0  0  0  0  0  0  0  0
    4.4724   -4.3286    5.3505 H   0  0  0  0  0  0  0  0  0  0  0  0
    3.9152   -3.5927    8.1465 H   0  0  0  0  0  0  0  0  0  0  0  0
    4.5642   -5.1380    7.4906 H   0  0  0  0  0  0  0  0  0  0  0  0
    6.0135   -2.6205    8.4356 H   0  0  0  0  0  0  0  0  0  0  0  0
    6.5577   -4.3697    8.4471 H   0  0  0  0  0  0  0  0  0  0  0  0
    7.6282   -2.6879    6.7116 H   0  0  0  0  0  0  0  0  0  0  0  0
    6.4087   -5.3639    5.7535 H   0  0  0  0  0  0  0  0  0  0  0  0
    9.0899   -4.0589    5.1535 H   0  0  0  0  0  0  0  0  0  0  0  0
    7.7600   -6.6253    4.2312 H   0  0  0  0  0  0  0  0  0  0  0  0
    9.3553   -6.3921    5.1563 H   0  0  0  0  0  0  0  0  0  0  0  0
    9.2040   -5.8399    3.4870 H   0  0  0  0  0  0  0  0  0  0  0  0
    9.6054   -3.9487    2.6944 H   0  0  0  0  0  0  0  0  0  0  0  0
    7.1098   -3.1331    1.1404 H   0  0  0  0  0  0  0  0  0  0  0  0
    9.6938   -4.6550    0.3956 H   0  0  0  0  0  0  0  0  0  0  0  0
    8.0131   -5.2165    0.3460 H   0  0  0  0  0  0  0  0  0  0  0  0
    8.5150   -3.9429   -0.8426 H   0  0  0  0  0  0  0  0  0  0  0  0
    8.7115   -1.2628    1.7632 H   0  0  0  0  0  0  0  0  0  0  0  0
   10.6712   -2.9177   -0.9283 H   0  0  0  0  0  0  0  0  0  0  0  0
   13.1281   -3.3152   -0.7736 H   0  0  0  0  0  0  0  0  0  0  0  0
   14.3017   -2.8981    1.3341 H   0  0  0  0  0  0  0  0  0  0  0  0
   12.9503   -2.0724    3.3110 H   0  0  0  0  0  0  0  0  0  0  0  0
   10.5417   -1.7046    3.1052 H   0  0  0  0  0  0  0  0  0  0  0  0
    8.8043   -0.5080   -0.2504 H   0  0  0  0  0  0  0  0  0  0  0  0
    6.6295   -6.5200    7.7827 H   0  0  0  0  0  0  0  0  0  0  0  0
    8.3036   -6.9185    8.1877 H   0  0  0  0  0  0  0  0  0  0  0  0
    7.6452   -7.1799    6.5168 H   0  0  0  0  0  0  0  0  0  0  0  0
    6.5798   -0.4858    1.0649 H   0  0  0  0  0  0  0  0  0  0  0  0
    5.9854    1.1234    1.5049 H   0  0  0  0  0  0  0  0  0  0  0  0
    7.0061    0.2892    2.6624 H   0  0  0  0  0  0  0  0  0  0  0  0
    1.0900   -0.5603    4.4843 H   0  0  0  0  0  0  0  0  0  0  0  0
    0.3768   -1.4199    3.1206 H   0  0  0  0  0  0  0  0  0  0  0  0
    1.7270   -2.1325    4.0472 H   0  0  0  0  0  0  0  0  0  0  0  0
    1.8446   -1.9041   -0.5175 H   0  0  0  0  0  0  0  0  0  0  0  0
    1.3941   -3.3877    2.0968 H   0  0  0  0  0  0  0  0  0  0  0  0
   -0.2462   -4.2659    0.6768 H   0  0  0  0  0  0  0  0  0  0  0  0
    0.8635   -4.1443   -0.8064 H   0  0  0  0  0  0  0  0  0  0  0  0
    1.1836   -5.3036    0.4980 H   0  0  0  0  0  0  0  0  0  0  0  0
    3.2111   -4.3232   -0.0412 H   0  0  0  0  0  0  0  0  0  0  0  0
    3.4147   -4.2213    1.7646 H   0  0  0  0  0  0  0  0  0  0  0  0
    3.7253   -2.7663    0.8123 H   0  0  0  0  0  0  0  0  0  0  0  0
   -0.7126   -1.7337    1.1055 H   0  0  0  0  0  0  0  0  0  0  0  0
   -2.1048   -1.8540   -1.7348 H   0  0  0  0  0  0  0  0  0  0  0  0
   -2.6748    0.5477    0.1458 H   0  0  0  0  0  0  0  0  0  0  0  0
   -2.9226   -1.1884    1.7065 H   0  0  0  0  0  0  0  0  0  0  0  0
   -4.3059   -1.6574    0.7222 H   0  0  0  0  0  0  0  0  0  0  0  0
   -2.8057   -2.5125    0.4015 H   0  0  0  0  0  0  0  0  0  0  0  0
   -3.9486    0.4541   -2.0245 H   0  0  0  0  0  0  0  0  0  0  0  0
   -4.8314    0.3154   -0.4950 H   0  0  0  0  0  0  0  0  0  0  0  0
   -4.5942   -1.1804   -1.4161 H   0  0  0  0  0  0  0  0  0  0  0  0
   -1.0015   -1.0703   -4.1833 H   0  0  0  0  0  0  0  0  0  0  0  0
   -2.7485   -1.2309   -3.8562 H   0  0  0  0  0  0  0  0  0  0  0  0
   -2.0896    0.2849   -4.5843 H   0  0  0  0  0  0  0  0  0  0  0  0
   -0.9635    4.0162   -4.5186 H   0  0  0  0  0  0  0  0  0  0  0  0
   -0.3866    3.8787   -2.8339 H   0  0  0  0  0  0  0  0  0  0  0  0
   -3.2136    4.3844   -5.0264 H   0  0  0  0  0  0  0  0  0  0  0  0
   -5.3503    5.4243   -4.4192 H   0  0  0  0  0  0  0  0  0  0  0  0
   -4.0859    5.4554   -0.3158 H   0  0  0  0  0  0  0  0  0  0  0  0
   -1.9523    4.4411   -0.9045 H   0  0  0  0  0  0  0  0  0  0  0  0
   -6.2563    7.0001   -1.7570 H   0  0  0  0  0  0  0  0  0  0  0  0
   -8.6558    4.4185   -1.0405 H   0  0  0  0  0  0  0  0  0  0  0  0
  -10.4852    5.8696   -1.6249 H   0  0  0  0  0  0  0  0  0  0  0  0
   -9.4919    7.0902   -2.3798 H   0  0  0  0  0  0  0  0  0  0  0  0
   -9.5889    6.1360    0.5502 H   0  0  0  0  0  0  0  0  0  0  0  0
  -10.1495    7.6708   -0.1771 H   0  0  0  0  0  0  0  0  0  0  0  0
   -8.2624    8.0919    1.2138 H   0  0  0  0  0  0  0  0  0  0  0  0
   -7.2064    6.9598    0.3975 H   0  0  0  0  0  0  0  0  0  0  0  0
   -8.2271    8.9299   -1.5133 H   0  0  0  0  0  0  0  0  0  0  0  0
   -5.9077   11.4822   -0.9151 H   0  0  0  0  0  0  0  0  0  0  0  0
   -6.2503   10.3109   -2.2503 H   0  0  0  0  0  0  0  0  0  0  0  0
   -9.6787    4.7775   -3.7370 H   0  0  0  0  0  0  0  0  0  0  0  0
  -10.8229    1.5567   -3.2922 H   0  0  0  0  0  0  0  0  0  0  0  0
   -9.4661    2.6106   -5.8257 H   0  0  0  0  0  0  0  0  0  0  0  0
  -11.0206    4.3288   -5.5195 H   0  0  0  0  0  0  0  0  0  0  0  0
  -12.2751    3.0387   -5.4809 H   0  0  0  0  0  0  0  0  0  0  0  0
  -11.5863    3.5616   -3.9511 H   0  0  0  0  0  0  0  0  0  0  0  0
  -12.1804    1.3065   -5.5377 H   0  0  0  0  0  0  0  0  0  0  0  0
  -10.9445    1.0090   -6.7767 H   0  0  0  0  0  0  0  0  0  0  0  0
  -10.8779    0.2123   -5.0982 H   0  0  0  0  0  0  0  0  0  0  0  0
   -9.0100    0.1664   -2.7884 H   0  0  0  0  0  0  0  0  0  0  0  0
   -8.3430   -2.0507   -4.3982 H   0  0  0  0  0  0  0  0  0  0  0  0
   -6.9250   -1.1116   -3.8544 H   0  0  0  0  0  0  0  0  0  0  0  0
   -7.5479   -1.8025   -6.7889 H   0  0  0  0  0  0  0  0  0  0  0  0
   -6.4096   -2.5596   -5.6068 H   0  0  0  0  0  0  0  0  0  0  0  0
   -6.2651    0.4316   -6.1359 H   0  0  0  0  0  0  0  0  0  0  0  0
   -5.1191   -0.6575   -5.2629 H   0  0  0  0  0  0  0  0  0  0  0  0
   -4.3580    0.1873   -7.4757 H   0  0  0  0  0  0  0  0  0  0  0  0
   -5.7532   -0.6467   -8.2892 H   0  0  0  0  0  0  0  0  0  0  0  0
   -3.2437   -1.9435   -6.9582 H   0  0  0  0  0  0  0  0  0  0  0  0
   -3.5639   -1.7408   -8.6755 H   0  0  0  0  0  0  0  0  0  0  0  0
   -6.2873   -5.6889   -9.5628 H   0  0  0  0  0  0  0  0  0  0  0  0
   -5.6661   -6.3595   -7.1316 H   0  0  0  0  0  0  0  0  0  0  0  0
  1  2  1  0
  2  3  1  0
  3  4  1  0
  3  5  1  0
  5  6  1  0
  6  7  1  0
  7  8  1  0
  8  9  2  0
  8 10  1  0
 10 11  1  0
 11 12  1  0
 12 13  1  0
 13 14  1  0
 14 15  1  0
 15 16  1  0
 16 17  1  0
 16 18  1  0
 18 19  2  0
 18 20  1  0
 20 21  1  0
 21 22  1  0
 21 23  1  0
 23 24  1  0
 24 25  2  0
 25 26  1  0
 26 27  2  0
 27 28  1  0
 28 29  2  0
 23 30  1  0
 15 31  1  0
 31 32  1  0
  6 33  1  0
 33 34  1  0
  5 35  1  0
 35 36  1  0
 35 37  1  0
 37 38  2  0
 37 39  1  0
 39 40  1  0
 40 41  1  0
 40 42  1  0
 39 43  1  0
 43 44  1  0
 44 45  2  0
 44 46  1  0
 46 47  1  0
 47 48  1  0
 47 49  1  0
 46 50  1  0
 50 51  1  0
 50 52  1  0
 52 53  2  0
 52 54  1  0
 54 55  1  0
 55 56  1  0
 56 57  1  0
 57 58  2  0
 58 59  1  0
 59 60  2  0
 60 61  1  0
 59 62  1  0
 62 63  1  0
 63 64  2  0
 63 65  1  0
 65 66  1  0
 66 67  1  0
 67 68  1  0
 68 69  1  0
 69 70  1  0
 70 71  2  0
 70 72  1  0
 65 73  1  0
 73 74  1  0
 74 75  2  0
 74 76  1  0
 76 77  1  0
 77 78  1  0
 77 79  1  0
 76 80  1  0
 80 81  1  0
 81 82  2  0
 81 83  1  0
 83 84  1  0
 84 85  1  0
 85 86  1  0
 86 87  1  0
 87 88  1  0
 88 89  1  0
 89 90  2  0
 89 91  1  0
 91 92  2  0
 92 93  1  0
 93 94  2  0
 14 10  1  0
 29 24  1  0
 61 56  2  0
 93 88  1  0
  1 95  1  0
  1 96  1  0
  1 97  1  0
  2 98  1  0
  2 99  1  0
  3100  1  1
  4101  1  0
  4102  1  0
  4103  1  0
  5104  1  6
  6105  1  1
  7106  1  0
  7107  1  0
 11108  1  0
 11109  1  0
 12110  1  0
 12111  1  0
 13112  1  0
 13113  1  0
 14114  1  1
 15115  1  6
 16116  1  1
 17117  1  0
 17118  1  0
 17119  1  0
 20120  1  0
 21121  1  1
 22122  1  0
 22123  1  0
 22124  1  0
 23125  1  1
 25126  1  0
 26127  1  0
 27128  1  0
 28129  1  0
 29130  1  0
 30131  1  0
 32132  1  0
 32133  1  0
 32134  1  0
 34135  1  0
 34136  1  0
 34137  1  0
 36138  1  0
 36139  1  0
 36140  1  0
 39141  1  6
 40142  1  0
 41143  1  0
 41144  1  0
 41145  1  0
 42146  1  0
 42147  1  0
 42148  1  0
 43149  1  0
 46150  1  6
 47151  1  0
 48152  1  0
 48153  1  0
 48154  1  0
 49155  1  0
 49156  1  0
 49157  1  0
 51158  1  0
 51159  1  0
 51160  1  0
 55161  1  0
 55162  1  0
 57163  1  0
 58164  1  0
 60165  1  0
 61166  1  0
 62167  1  0
 65168  1  1
 66169  1  0
 66170  1  0
 67171  1  0
 67172  1  0
 68173  1  0
 68174  1  0
 69175  1  0
 72176  1  0
 72177  1  0
 73178  1  0
 76179  1  1
 77180  1  0
 78181  1  0
 78182  1  0
 78183  1  0
 79184  1  0
 79185  1  0
 79186  1  0
 80187  1  0
 83188  1  0
 83189  1  0
 84190  1  0
 84191  1  0
 85192  1  0
 85193  1  0
 86194  1  0
 86195  1  0
 87196  1  0
 87197  1  0
 91198  1  0
 92199  1  0
M  END
$$$$

     RDKit          3D

199202  0  0  0  0  0  0  0  0999 V2000
   -6.2250    2.9155   -5.9611 C   0  0  0  0  0  0  0  0  0  0  0  0
   -5.4527    1.6525   -5.8778 C   0  0  0  0  0  0  0  0  0  0  0  0
   -4.6102    1.5057   -4.6020 C   0  0  2  0  0  0  0  0  0  0  0  0
   -5.4916    1.5590   -3.4616 C   0  0  0  0  0  0  0  0  0  0  0  0
   -3.2851    2.1986   -4.6922 C   0  0  1  0  0  0  0  0  0  0  0  0
   -3.1938    3.6246   -4.9399 C   0  0  1  0  0  0  0  0  0  0  0  0
   -2.6655    4.5856   -3.9158 C   0  0  0  0  0  0  0  0  0  0  0  0
   -3.3149    4.6354   -2.6199 C   0  0  0  0  0  0  0  0  0  0  0  0
   -4.3899    4.1125   -2.2657 O   0  0  0  0  0  0  0  0  0  0  0  0
   -2.6338    5.3664   -1.5757 N   0  0  0  0  0  0  0  0  0  0  0  0
   -1.4910    6.2672   -1.7318 C   0  0  0  0  0  0  0  0  0  0  0  0
   -0.5723    5.8245   -0.6368 C   0  0  0  0  0  0  0  0  0  0  0  0
   -1.3593    4.9010    0.2532 C   0  0  0  0  0  0  0  0  0  0  0  0
   -2.8138    5.2352   -0.1502 C   0  0  1  0  0  0  0  0  0  0  0  0
   -3.4219    6.2971    0.6396 C   0  0  1  0  0  0  0  0  0  0  0  0
   -4.8986    6.5859    0.3640 C   0  0  1  0  0  0  0  0  0  0  0  0
   -5.1953    7.0076   -1.0230 C   0  0  0  0  0  0  0  0  0  0  0  0
   -5.7069    5.4480    0.8254 C   0  0  0  0  0  0  0  0  0  0  0  0
   -5.0658    4.4705    1.3529 O   0  0  0  0  0  0  0  0  0  0  0  0
   -7.1007    5.2989    0.7586 N   0  0  0  0  0  0  0  0  0  0  0  0
   -7.7022    4.1058    1.2512 C   0  0  2  0  0  0  0  0  0  0  0  0
   -8.6415    3.5124    0.2035 C   0  0  0  0  0  0  0  0  0  0  0  0
   -8.3345    4.1238    2.5845 C   0  0  1  0  0  0  0  0  0  0  0  0
   -9.5849    4.8560    2.7825 C   0  0  0  0  0  0  0  0  0  0  0  0
  -10.2626    4.5766    3.9850 C   0  0  0  0  0  0  0  0  0  0  0  0
  -11.4562    5.1656    4.3115 C   0  0  0  0  0  0  0  0  0  0  0  0
  -12.0581    6.0707    3.4651 C   0  0  0  0  0  0  0  0  0  0  0  0
  -11.3975    6.3460    2.2876 C   0  0  0  0  0  0  0  0  0  0  0  0
  -10.1828    5.7511    1.9505 C   0  0  0  0  0  0  0  0  0  0  0  0
   -8.7381    2.7495    2.8090 O   0  0  0  0  0  0  0  0  0  0  0  0
   -3.3478    5.8909    2.0056 O   0  0  0  0  0  0  0  0  0  0  0  0
   -2.6793    6.8100    2.7860 C   0  0  0  0  0  0  0  0  0  0  0  0
   -2.1191    3.8249   -5.9590 O   0  0  0  0  0  0  0  0  0  0  0  0
   -2.8377    4.4432   -6.9829 C   0  0  0  0  0  0  0  0  0  0  0  0
   -2.2311    1.4601   -4.0330 N   0  0  0  0  0  0  0  0  0  0  0  0
   -1.9873    1.7600   -2.6294 C   0  0  0  0  0  0  0  0  0  0  0  0
   -1.3889    0.5054   -4.7504 C   0  0  0  0  0  0  0  0  0  0  0  0
   -1.5245    0.4664   -6.0005 O   0  0  0  0  0  0  0  0  0  0  0  0
   -0.5002   -0.2909   -3.9428 C   0  0  1  0  0  0  0  0  0  0  0  0
   -1.2048   -1.4613   -3.2528 C   0  0  0  0  0  0  0  0  0  0  0  0
   -0.1969   -2.2444   -2.4132 C   0  0  0  0  0  0  0  0  0  0  0  0
   -2.4419   -1.2968   -2.5237 C   0  0  0  0  0  0  0  0  0  0  0  0
    0.5723   -1.0285   -4.6220 N   0  0  0  0  0  0  0  0  0  0  0  0
    1.9481   -0.6989   -4.4717 C   0  0  0  0  0  0  0  0  0  0  0  0
    2.3852    0.2880   -3.8385 O   0  0  0  0  0  0  0  0  0  0  0  0
    2.8805   -1.6993   -5.1382 C   0  0  1  0  0  0  0  0  0  0  0  0
    2.4062   -2.3642   -6.3269 C   0  0  0  0  0  0  0  0  0  0  0  0
    2.0294   -1.4476   -7.4790 C   0  0  0  0  0  0  0  0  0  0  0  0
    3.4752   -3.3514   -6.7921 C   0  0  0  0  0  0  0  0  0  0  0  0
    4.2721   -1.4517   -4.9345 N   0  0  0  0  0  0  0  0  0  0  0  0
    5.1609   -0.9090   -5.9141 C   0  0  0  0  0  0  0  0  0  0  0  0
    4.7566   -1.7957   -3.6177 C   0  0  0  0  0  0  0  0  0  0  0  0
    3.8447   -1.9024   -2.7462 O   0  0  0  0  0  0  0  0  0  0  0  0
    6.0405   -2.0084   -3.2320 O   0  0  0  0  0  0  0  0  0  0  0  0
    6.4114   -2.1942   -1.8871 C   0  0  0  0  0  0  0  0  0  0  0  0
    5.5246   -3.0043   -1.0622 C   0  0  0  0  0  0  0  0  0  0  0  0
    4.6960   -2.2201   -0.2049 C   0  0  0  0  0  0  0  0  0  0  0  0
    3.7906   -2.7782    0.6375 C   0  0  0  0  0  0  0  0  0  0  0  0
    3.6024   -4.1664    0.7255 C   0  0  0  0  0  0  0  0  0  0  0  0
    4.3959   -4.9188   -0.0975 C   0  0  0  0  0  0  0  0  0  0  0  0
    5.3404   -4.3362   -0.9735 C   0  0  0  0  0  0  0  0  0  0  0  0
    2.6500   -4.5961    1.6550 N   0  0  0  0  0  0  0  0  0  0  0  0
    2.0791   -5.8705    1.8360 C   0  0  0  0  0  0  0  0  0  0  0  0
    2.4199   -6.7946    1.0921 O   0  0  0  0  0  0  0  0  0  0  0  0
    1.0683   -5.9972    2.9471 C   0  0  1  0  0  0  0  0  0  0  0  0
    1.1228   -7.2891    3.6572 C   0  0  0  0  0  0  0  0  0  0  0  0
    2.4382   -7.5993    4.3083 C   0  0  0  0  0  0  0  0  0  0  0  0
    2.2794   -8.9315    5.0228 C   0  0  0  0  0  0  0  0  0  0  0  0
    1.8875   -9.9444    4.0848 N   0  0  0  0  0  0  0  0  0  0  0  0
    2.5965  -10.3536    2.9458 C   0  0  0  0  0  0  0  0  0  0  0  0
    3.6944   -9.8062    2.6740 O   0  0  0  0  0  0  0  0  0  0  0  0
    2.0945  -11.3734    2.0993 N   0  0  0  0  0  0  0  0  0  0  0  0
    1.0947   -4.8282    3.7771 N   0  0  0  0  0  0  0  0  0  0  0  0
    0.1692   -3.7790    3.8211 C   0  0  0  0  0  0  0  0  0  0  0  0
   -0.8654   -3.7599    3.0856 O   0  0  0  0  0  0  0  0  0  0  0  0
    0.4225   -2.6246    4.7764 C   0  0  1  0  0  0  0  0  0  0  0  0
   -0.7762   -2.2438    5.5700 C   0  0  0  0  0  0  0  0  0  0  0  0
   -0.4386   -1.0903    6.5056 C   0  0  0  0  0  0  0  0  0  0  0  0
   -1.8685   -1.8107    4.6055 C   0  0  0  0  0  0  0  0  0  0  0  0
    1.6014   -2.9170    5.5552 N   0  0  0  0  0  0  0  0  0  0  0  0
    2.9081   -2.5074    5.2594 C   0  0  0  0  0  0  0  0  0  0  0  0
    3.1502   -1.8267    4.2259 O   0  0  0  0  0  0  0  0  0  0  0  0
    3.9888   -2.9121    6.2097 C   0  0  0  0  0  0  0  0  0  0  0  0
    5.3218   -2.6366    5.5453 C   0  0  0  0  0  0  0  0  0  0  0  0
    6.4694   -3.0309    6.4588 C   0  0  0  0  0  0  0  0  0  0  0  0
    7.8183   -2.8197    5.8362 C   0  0  0  0  0  0  0  0  0  0  0  0
    8.9559   -3.2553    6.7665 C   0  0  0  0  0  0  0  0  0  0  0  0
   10.2340   -3.0846    6.1195 N   0  0  0  0  0  0  0  0  0  0  0  0
   10.8112   -4.1328    5.3209 C   0  0  0  0  0  0  0  0  0  0  0  0
   10.3509   -5.2706    5.0649 O   0  0  0  0  0  0  0  0  0  0  0  0
   12.1145   -3.6729    4.7997 C   0  0  0  0  0  0  0  0  0  0  0  0
   12.2870   -2.4367    5.2625 C   0  0  0  0  0  0  0  0  0  0  0  0
   11.1545   -2.0261    6.0834 C   0  0  0  0  0  0  0  0  0  0  0  0
   10.9900   -0.9290    6.6731 O   0  0  0  0  0  0  0  0  0  0  0  0
   -6.3031    3.5209   -5.0452 H   0  0  0  0  0  0  0  0  0  0  0  0
   -7.2959    2.6188   -6.1791 H   0  0  0  0  0  0  0  0  0  0  0  0
   -5.9590    3.5932   -6.7899 H   0  0  0  0  0  0  0  0  0  0  0  0
   -6.0823    0.7416   -5.9733 H   0  0  0  0  0  0  0  0  0  0  0  0
   -4.7158    1.6528   -6.7197 H   0  0  0  0  0  0  0  0  0  0  0  0
   -4.3081    0.3837   -4.6979 H   0  0  0  0  0  0  0  0  0  0  0  0
   -5.1057    1.3815   -2.4497 H   0  0  0  0  0  0  0  0  0  0  0  0
   -6.1935    2.4196   -3.3672 H   0  0  0  0  0  0  0  0  0  0  0  0
   -6.2342    0.6952   -3.5946 H   0  0  0  0  0  0  0  0  0  0  0  0
   -3.0509    1.7881   -5.8220 H   0  0  0  0  0  0  0  0  0  0  0  0
   -4.0442    4.0520   -5.4545 H   0  0  0  0  0  0  0  0  0  0  0  0
   -2.8439    5.6574   -4.3218 H   0  0  0  0  0  0  0  0  0  0  0  0
   -1.5460    4.6163   -3.8584 H   0  0  0  0  0  0  0  0  0  0  0  0
   -1.0313    6.2163   -2.7366 H   0  0  0  0  0  0  0  0  0  0  0  0
   -1.8098    7.3261   -1.6002 H   0  0  0  0  0  0  0  0  0  0  0  0
   -0.2347    6.7268   -0.0761 H   0  0  0  0  0  0  0  0  0  0  0  0
    0.2841    5.2888   -1.1293 H   0  0  0  0  0  0  0  0  0  0  0  0
   -1.1947    3.8556   -0.1410 H   0  0  0  0  0  0  0  0  0  0  0  0
   -1.1834    4.9821    1.3159 H   0  0  0  0  0  0  0  0  0  0  0  0
   -3.3724    4.2277   -0.0150 H   0  0  0  0  0  0  0  0  0  0  0  0
   -2.9040    7.2592    0.5580 H   0  0  0  0  0  0  0  0  0  0  0  0
   -5.1972    7.4480    1.0449 H   0  0  0  0  0  0  0  0  0  0  0  0
   -4.2583    7.1366   -1.6177 H   0  0  0  0  0  0  0  0  0  0  0  0
   -5.9503    6.3946   -1.5448 H   0  0  0  0  0  0  0  0  0  0  0  0
   -5.6408    8.0552   -1.0292 H   0  0  0  0  0  0  0  0  0  0  0  0
   -7.6278    6.1127    0.3216 H   0  0  0  0  0  0  0  0  0  0  0  0
   -6.8654    3.3320    1.3475 H   0  0  0  0  0  0  0  0  0  0  0  0
   -8.2272    2.6039   -0.2729 H   0  0  0  0  0  0  0  0  0  0  0  0
   -8.8088    4.2344   -0.6255 H   0  0  0  0  0  0  0  0  0  0  0  0
   -9.5907    3.2158    0.6908 H   0  0  0  0  0  0  0  0  0  0  0  0
   -7.6114    4.2738    3.4359 H   0  0  0  0  0  0  0  0  0  0  0  0
   -9.8544    3.8749    4.7082 H   0  0  0  0  0  0  0  0  0  0  0  0
  -11.9452    4.9146    5.2561 H   0  0  0  0  0  0  0  0  0  0  0  0
  -12.9854    6.5191    3.7413 H   0  0  0  0  0  0  0  0  0  0  0  0
  -11.8573    7.0631    1.5961 H   0  0  0  0  0  0  0  0  0  0  0  0
   -9.7646    6.0190    1.0237 H   0  0  0  0  0  0  0  0  0  0  0  0
   -7.9057    2.2280    2.9943 H   0  0  0  0  0  0  0  0  0  0  0  0
   -1.6258    7.0034    2.4725 H   0  0  0  0  0  0  0  0  0  0  0  0
   -2.5878    6.3282    3.7997 H   0  0  0  0  0  0  0  0  0  0  0  0
   -3.2275    7.7493    2.9602 H   0  0  0  0  0  0  0  0  0  0  0  0
   -3.6717    3.8132   -7.3688 H   0  0  0  0  0  0  0  0  0  0  0  0
   -3.3290    5.3810   -6.6422 H   0  0  0  0  0  0  0  0  0  0  0  0
   -2.1500    4.7511   -7.8142 H   0  0  0  0  0  0  0  0  0  0  0  0
   -2.8528    1.8787   -2.0021 H   0  0  0  0  0  0  0  0  0  0  0  0
   -1.3161    1.0487   -2.1068 H   0  0  0  0  0  0  0  0  0  0  0  0
   -1.3664    2.7164   -2.5466 H   0  0  0  0  0  0  0  0  0  0  0  0
    0.0166    0.3095   -3.1927 H   0  0  0  0  0  0  0  0  0  0  0  0
   -1.4365   -2.2139   -4.1000 H   0  0  0  0  0  0  0  0  0  0  0  0
    0.7064   -1.5757   -2.2946 H   0  0  0  0  0  0  0  0  0  0  0  0
   -0.6354   -2.5625   -1.4593 H   0  0  0  0  0  0  0  0  0  0  0  0
    0.1970   -3.1430   -2.9409 H   0  0  0  0  0  0  0  0  0  0  0  0
   -3.2711   -0.7448   -2.9517 H   0  0  0  0  0  0  0  0  0  0  0  0
   -2.8866   -2.3511   -2.3970 H   0  0  0  0  0  0  0  0  0  0  0  0
   -2.3443   -0.9874   -1.4539 H   0  0  0  0  0  0  0  0  0  0  0  0
    0.2346   -1.8113   -5.2349 H   0  0  0  0  0  0  0  0  0  0  0  0
    2.7183   -2.4965   -4.2277 H   0  0  0  0  0  0  0  0  0  0  0  0
    1.5141   -3.0009   -6.1136 H   0  0  0  0  0  0  0  0  0  0  0  0
    2.7695   -1.5090   -8.3117 H   0  0  0  0  0  0  0  0  0  0  0  0
    1.0454   -1.7595   -7.9302 H   0  0  0  0  0  0  0  0  0  0  0  0
    1.8400   -0.4082   -7.1332 H   0  0  0  0  0  0  0  0  0  0  0  0
    3.0937   -4.3884   -6.8480 H   0  0  0  0  0  0  0  0  0  0  0  0
    3.7857   -3.0947   -7.8490 H   0  0  0  0  0  0  0  0  0  0  0  0
    4.3470   -3.3615   -6.1094 H   0  0  0  0  0  0  0  0  0  0  0  0
    5.3938    0.1655   -5.7953 H   0  0  0  0  0  0  0  0  0  0  0  0
    6.1507   -1.4446   -5.8012 H   0  0  0  0  0  0  0  0  0  0  0  0
    4.8541   -1.0567   -6.9564 H   0  0  0  0  0  0  0  0  0  0  0  0
    6.5639   -1.1590   -1.4682 H   0  0  0  0  0  0  0  0  0  0  0  0
    7.4566   -2.6358   -1.9307 H   0  0  0  0  0  0  0  0  0  0  0  0
    4.7769   -1.1373   -0.2123 H   0  0  0  0  0  0  0  0  0  0  0  0
    3.1993   -2.0897    1.2553 H   0  0  0  0  0  0  0  0  0  0  0  0
    4.2750   -5.9892   -0.0548 H   0  0  0  0  0  0  0  0  0  0  0  0
    5.9589   -4.9677   -1.6114 H   0  0  0  0  0  0  0  0  0  0  0  0
    2.2936   -3.8506    2.3407 H   0  0  0  0  0  0  0  0  0  0  0  0
    0.0782   -5.9562    2.4045 H   0  0  0  0  0  0  0  0  0  0  0  0
    0.3429   -7.4031    4.4294 H   0  0  0  0  0  0  0  0  0  0  0  0
    0.9478   -8.1000    2.9058 H   0  0  0  0  0  0  0  0  0  0  0  0
    3.2065   -7.7206    3.5249 H   0  0  0  0  0  0  0  0  0  0  0  0
    2.7400   -6.8486    5.0692 H   0  0  0  0  0  0  0  0  0  0  0  0
    3.2564   -9.2243    5.4992 H   0  0  0  0  0  0  0  0  0  0  0  0
    1.5010   -8.8226    5.8072 H   0  0  0  0  0  0  0  0  0  0  0  0
    0.9674  -10.4357    4.2732 H   0  0  0  0  0  0  0  0  0  0  0  0
    1.1290  -11.7889    2.2365 H   0  0  0  0  0  0  0  0  0  0  0  0
    2.6767  -11.7481    1.3081 H   0  0  0  0  0  0  0  0  0  0  0  0
    1.9278   -4.7593    4.4429 H   0  0  0  0  0  0  0  0  0  0  0  0
    0.6779   -1.7337    4.1004 H   0  0  0  0  0  0  0  0  0  0  0  0
   -1.1629   -3.0650    6.1753 H   0  0  0  0  0  0  0  0  0  0  0  0
   -1.3293   -0.7546    7.0652 H   0  0  0  0  0  0  0  0  0  0  0  0
   -0.0256   -0.2822    5.8872 H   0  0  0  0  0  0  0  0  0  0  0  0
    0.3570   -1.4037    7.2209 H   0  0  0  0  0  0  0  0  0  0  0  0
   -1.4526   -1.3328    3.6990 H   0  0  0  0  0  0  0  0  0  0  0  0
   -2.4760   -2.6922    4.3697 H   0  0  0  0  0  0  0  0  0  0  0  0
   -2.4996   -1.0824    5.1515 H   0  0  0  0  0  0  0  0  0  0  0  0
    1.4314   -3.4992    6.4265 H   0  0  0  0  0  0  0  0  0  0  0  0
    3.9386   -3.9589    6.5169 H   0  0  0  0  0  0  0  0  0  0  0  0
    3.8589   -2.2175    7.0939 H   0  0  0  0  0  0  0  0  0  0  0  0
    5.4132   -3.2215    4.6058 H   0  0  0  0  0  0  0  0  0  0  0  0
    5.4006   -1.5730    5.2530 H   0  0  0  0  0  0  0  0  0  0  0  0
    6.3463   -2.4256    7.3873 H   0  0  0  0  0  0  0  0  0  0  0  0
    6.2927   -4.0756    6.7625 H   0  0  0  0  0  0  0  0  0  0  0  0
    7.8824   -3.4538    4.9291 H   0  0  0  0  0  0  0  0  0  0  0  0
    7.9531   -1.7677    5.5626 H   0  0  0  0  0  0  0  0  0  0  0  0
    8.9833   -2.6417    7.6938 H   0  0  0  0  0  0  0  0  0  0  0  0
    8.7722   -4.3087    7.1017 H   0  0  0  0  0  0  0  0  0  0  0  0
   12.8031   -4.2379    4.1587 H   0  0  0  0  0  0  0  0  0  0  0  0
   13.1306   -1.7668    5.0944 H   0  0  0  0  0  0  0  0  0  0  0  0
  1  2  1  0
  2  3  1  0
  3  4  1  0
  3  5  1  0
  5  6  1  0
  6  7  1  0
  7  8  1  0
  8  9  2  0
  8 10  1  0
 10 11  1  0
 11 12  1  0
 12 13  1  0
 13 14  1  0
 14 15  1  0
 15 16  1  0
 16 17  1  0
 16 18  1  0
 18 19  2  0
 18 20  1  0
 20 21  1  0
 21 22  1  0
 21 23  1  0
 23 24  1  0
 24 25  2  0
 25 26  1  0
 26 27  2  0
 27 28  1  0
 28 29  2  0
 23 30  1  0
 15 31  1  0
 31 32  1  0
  6 33  1  0
 33 34  1  0
  5 35  1  0
 35 36  1  0
 35 37  1  0
 37 38  2  0
 37 39  1  0
 39 40  1  0
 40 41  1  0
 40 42  1  0
 39 43  1  0
 43 44  1  0
 44 45  2  0
 44 46  1  0
 46 47  1  0
 47 48  1  0
 47 49  1  0
 46 50  1  0
 50 51  1  0
 50 52  1  0
 52 53  2  0
 52 54  1  0
 54 55  1  0
 55 56  1  0
 56 57  1  0
 57 58  2  0
 58 59  1  0
 59 60  2  0
 60 61  1  0
 59 62  1  0
 62 63  1  0
 63 64  2  0
 63 65  1  0
 65 66  1  0
 66 67  1  0
 67 68  1  0
 68 69  1  0
 69 70  1  0
 70 71  2  0
 70 72  1  0
 65 73  1  0
 73 74  1  0
 74 75  2  0
 74 76  1  0
 76 77  1  0
 77 78  1  0
 77 79  1  0
 76 80  1  0
 80 81  1  0
 81 82  2  0
 81 83  1  0
 83 84  1  0
 84 85  1  0
 85 86  1  0
 86 87  1  0
 87 88  1  0
 88 89  1  0
 89 90  2  0
 89 91  1  0
 91 92  2  0
 92 93  1  0
 93 94  2  0
 14 10  1  0
 29 24  1  0
 61 56  2  0
 93 88  1  0
  1 95  1  0
  1 96  1  0
  1 97  1  0
  2 98  1  0
  2 99  1  0
  3100  1  6
  4101  1  0
  4102  1  0
  4103  1  0
  5104  1  6
  6105  1  6
  7106  1  0
  7107  1  0
 11108  1  0
 11109  1  0
 12110  1  0
 12111  1  0
 13112  1  0
 13113  1  0
 14114  1  6
 15115  1  1
 16116  1  1
 17117  1  0
 17118  1  0
 17119  1  0
 20120  1  0
 21121  1  1
 22122  1  0
 22123  1  0
 22124  1  0
 23125  1  1
 25126  1  0
 26127  1  0
 27128  1  0
 28129  1  0
 29130  1  0
 30131  1  0
 32132  1  0
 32133  1  0
 32134  1  0
 34135  1  0
 34136  1  0
 34137  1  0
 36138  1  0
 36139  1  0
 36140  1  0
 39141  1  1
 40142  1  0
 41143  1  0
 41144  1  0
 41145  1  0
 42146  1  0
 42147  1  0
 42148  1  0
 43149  1  0
 46150  1  1
 47151  1  0
 48152  1  0
 48153  1  0
 48154  1  0
 49155  1  0
 49156  1  0
 49157  1  0
 51158  1  0
 51159  1  0
 51160  1  0
 55161  1  0
 55162  1  0
 57163  1  0
 58164  1  0
 60165  1  0
 61166  1  0
 62167  1  0
 65168  1  6
 66169  1  0
 66170  1  0
 67171  1  0
 67172  1  0
 68173  1  0
 68174  1  0
 69175  1  0
 72176  1  0
 72177  1  0
 73178  1  0
 76179  1  6
 77180  1  0
 78181  1  0
 78182  1  0
 78183  1  0
 79184  1  0
 79185  1  0
 79186  1  0
 80187  1  0
 83188  1  0
 83189  1  0
 84190  1  0
 84191  1  0
 85192  1  0
 85193  1  0
 86194  1  0
 86195  1  0
 87196  1  0
 87197  1  0
 91198  1  0
 92199  1  0
M  END
$$$$

     RDKit          3D

199202  0  0  0  0  0  0  0  0999 V2000
   -0.7094    5.5895   -2.4743 C   0  0  0  0  0  0  0  0  0  0  0  0
    0.3261    5.2236   -1.4819 C   0  0  0  0  0  0  0  0  0  0  0  0
    1.5858    4.5995   -1.9988 C   0  0  2  0  0  0  0  0  0  0  0  0
    2.2335    5.5202   -2.9568 C   0  0  0  0  0  0  0  0  0  0  0  0
    1.5290    3.1429   -2.2824 C   0  0  1  0  0  0  0  0  0  0  0  0
    0.5481    2.6697   -3.3186 C   0  0  1  0  0  0  0  0  0  0  0  0
    1.0750    2.7108   -4.7239 C   0  0  0  0  0  0  0  0  0  0  0  0
    0.1873    2.2127   -5.7624 C   0  0  0  0  0  0  0  0  0  0  0  0
   -0.6988    1.3467   -5.3445 O   0  0  0  0  0  0  0  0  0  0  0  0
    0.0767    2.4734   -7.1255 N   0  0  0  0  0  0  0  0  0  0  0  0
   -1.0772    1.7018   -7.8193 C   0  0  0  0  0  0  0  0  0  0  0  0
   -1.8581    2.9328   -8.2407 C   0  0  0  0  0  0  0  0  0  0  0  0
   -0.7928    4.0048   -8.5181 C   0  0  0  0  0  0  0  0  0  0  0  0
    0.5218    3.2173   -8.2166 C   0  0  1  0  0  0  0  0  0  0  0  0
    1.7477    3.9443   -8.4693 C   0  0  1  0  0  0  0  0  0  0  0  0
    2.8555    3.0461   -8.9965 C   0  0  1  0  0  0  0  0  0  0  0  0
    4.0655    4.0061   -9.3059 C   0  0  0  0  0  0  0  0  0  0  0  0
    3.3674    2.0278   -8.0888 C   0  0  0  0  0  0  0  0  0  0  0  0
    3.1843    2.1176   -6.8749 O   0  0  0  0  0  0  0  0  0  0  0  0
    4.1108    0.8625   -8.5202 N   0  0  0  0  0  0  0  0  0  0  0  0
    4.5794   -0.0834   -7.5201 C   0  0  2  0  0  0  0  0  0  0  0  0
    6.0753    0.1400   -7.2601 C   0  0  0  0  0  0  0  0  0  0  0  0
    4.4122   -1.4895   -8.0069 C   0  0  1  0  0  0  0  0  0  0  0  0
    3.0036   -1.8124   -8.2593 C   0  0  0  0  0  0  0  0  0  0  0  0
    2.7392   -2.9038   -9.0676 C   0  0  0  0  0  0  0  0  0  0  0  0
    1.4851   -3.3544   -9.3717 C   0  0  0  0  0  0  0  0  0  0  0  0
    0.4135   -2.6536   -8.8213 C   0  0  0  0  0  0  0  0  0  0  0  0
    0.6232   -1.5590   -8.0098 C   0  0  0  0  0  0  0  0  0  0  0  0
    1.9208   -1.1547   -7.7406 C   0  0  0  0  0  0  0  0  0  0  0  0
    5.1303   -1.6844   -9.2090 O   0  0  0  0  0  0  0  0  0  0  0  0
    1.4552    4.6785   -9.7209 O   0  0  0  0  0  0  0  0  0  0  0  0
    1.6270    6.0211   -9.4626 C   0  0  0  0  0  0  0  0  0  0  0  0
    0.0832    1.3963   -2.9914 O   0  0  0  0  0  0  0  0  0  0  0  0
   -1.2158    1.4487   -2.5100 C   0  0  0  0  0  0  0  0  0  0  0  0
    2.7862    2.4793   -2.1205 N   0  0  0  0  0  0  0  0  0  0  0  0
    3.8365    2.6229   -3.1568 C   0  0  0  0  0  0  0  0  0  0  0  0
    3.1968    1.6575   -1.0294 C   0  0  0  0  0  0  0  0  0  0  0  0
    4.4536    1.3117   -1.0191 O   0  0  0  0  0  0  0  0  0  0  0  0
    2.4320    1.1436    0.0856 C   0  0  1  0  0  0  0  0  0  0  0  0
    2.1346   -0.3616   -0.0634 C   0  0  0  0  0  0  0  0  0  0  0  0
    1.4009   -0.7704   -1.2519 C   0  0  0  0  0  0  0  0  0  0  0  0
    3.3981   -1.1858    0.0469 C   0  0  0  0  0  0  0  0  0  0  0  0
    3.2814    1.0886    1.3287 N   0  0  0  0  0  0  0  0  0  0  0  0
    2.6372    1.5637    2.5066 C   0  0  0  0  0  0  0  0  0  0  0  0
    1.4848    2.0397    2.5409 O   0  0  0  0  0  0  0  0  0  0  0  0
    3.4301    1.4532    3.8503 C   0  0  1  0  0  0  0  0  0  0  0  0
    4.4456    2.4620    4.0215 C   0  0  0  0  0  0  0  0  0  0  0  0
    5.5681    2.4895    2.9978 C   0  0  0  0  0  0  0  0  0  0  0  0
    5.1291    2.3749    5.3903 C   0  0  0  0  0  0  0  0  0  0  0  0
    2.3570    1.4759    4.7931 N   0  0  0  0  0  0  0  0  0  0  0  0
    1.8650    0.1600    5.2478 C   0  0  0  0  0  0  0  0  0  0  0  0
    1.7222    2.6504    5.3408 C   0  0  0  0  0  0  0  0  0  0  0  0
    2.1221    3.8007    5.2283 O   0  0  0  0  0  0  0  0  0  0  0  0
    0.5491    2.3803    6.0496 O   0  0  0  0  0  0  0  0  0  0  0  0
   -0.1612    3.4468    6.7601 C   0  0  0  0  0  0  0  0  0  0  0  0
   -1.4013    2.7741    7.3297 C   0  0  0  0  0  0  0  0  0  0  0  0
   -2.6348    2.9427    6.7415 C   0  0  0  0  0  0  0  0  0  0  0  0
   -3.7010    2.2098    7.2138 C   0  0  0  0  0  0  0  0  0  0  0  0
   -3.4746    1.3491    8.2451 C   0  0  0  0  0  0  0  0  0  0  0  0
   -2.2197    1.1789    8.8482 C   0  0  0  0  0  0  0  0  0  0  0  0
   -1.1488    1.9142    8.3784 C   0  0  0  0  0  0  0  0  0  0  0  0
   -4.4847    0.4592    8.7803 N   0  0  0  0  0  0  0  0  0  0  0  0
   -4.6049   -0.7547    8.0465 C   0  0  0  0  0  0  0  0  0  0  0  0
   -3.8009   -0.8123    7.0254 O   0  0  0  0  0  0  0  0  0  0  0  0
   -5.4534   -1.8823    8.2707 C   0  0  1  0  0  0  0  0  0  0  0  0
   -6.9121   -1.7649    8.4377 C   0  0  0  0  0  0  0  0  0  0  0  0
   -7.4662   -0.9818    9.5539 C   0  0  0  0  0  0  0  0  0  0  0  0
   -6.9985   -1.4053   10.9138 C   0  0  0  0  0  0  0  0  0  0  0  0
   -7.3160   -2.8041   11.1768 N   0  0  0  0  0  0  0  0  0  0  0  0
   -6.9255   -3.3923   12.4317 C   0  0  0  0  0  0  0  0  0  0  0  0
   -6.3093   -2.6790   13.2945 O   0  0  0  0  0  0  0  0  0  0  0  0
   -7.1876   -4.7303   12.7649 N   0  0  0  0  0  0  0  0  0  0  0  0
   -5.2246   -2.8127    7.1444 N   0  0  0  0  0  0  0  0  0  0  0  0
   -5.0219   -4.1760    7.4059 C   0  0  0  0  0  0  0  0  0  0  0  0
   -5.0352   -4.6098    8.5849 O   0  0  0  0  0  0  0  0  0  0  0  0
   -4.7831   -5.2056    6.3392 C   0  0  1  0  0  0  0  0  0  0  0  0
   -5.9940   -6.1505    6.3071 C   0  0  0  0  0  0  0  0  0  0  0  0
   -6.1602   -6.8262    7.6571 C   0  0  0  0  0  0  0  0  0  0  0  0
   -5.8260   -7.2415    5.2856 C   0  0  0  0  0  0  0  0  0  0  0  0
   -4.6049   -4.6168    5.0292 N   0  0  0  0  0  0  0  0  0  0  0  0
   -3.4234   -5.0316    4.3356 C   0  0  0  0  0  0  0  0  0  0  0  0
   -2.5899   -5.8356    4.8197 O   0  0  0  0  0  0  0  0  0  0  0  0
   -3.0850   -4.5315    2.9483 C   0  0  0  0  0  0  0  0  0  0  0  0
   -1.9600   -5.3829    2.4197 C   0  0  0  0  0  0  0  0  0  0  0  0
   -1.5927   -4.9915    1.0193 C   0  0  0  0  0  0  0  0  0  0  0  0
   -0.4631   -5.9010    0.5187 C   0  0  0  0  0  0  0  0  0  0  0  0
   -0.1523   -5.5288   -0.9060 C   0  0  0  0  0  0  0  0  0  0  0  0
    0.9193   -6.3904   -1.4267 N   0  0  0  0  0  0  0  0  0  0  0  0
    0.7552   -7.6567   -2.0727 C   0  0  0  0  0  0  0  0  0  0  0  0
   -0.3976   -8.1520   -2.2383 O   0  0  0  0  0  0  0  0  0  0  0  0
    2.0513   -8.1887   -2.4529 C   0  0  0  0  0  0  0  0  0  0  0  0
    2.9638   -7.2925   -2.0590 C   0  0  0  0  0  0  0  0  0  0  0  0
    2.3183   -6.1589   -1.4180 C   0  0  0  0  0  0  0  0  0  0  0  0
    2.8622   -5.1287   -0.9264 O   0  0  0  0  0  0  0  0  0  0  0  0
   -1.0242    6.6632   -2.2541 H   0  0  0  0  0  0  0  0  0  0  0  0
   -0.3710    5.6351   -3.5279 H   0  0  0  0  0  0  0  0  0  0  0  0
   -1.6506    5.0272   -2.3201 H   0  0  0  0  0  0  0  0  0  0  0  0
   -0.1498    4.4652   -0.7837 H   0  0  0  0  0  0  0  0  0  0  0  0
    0.5431    6.0842   -0.8067 H   0  0  0  0  0  0  0  0  0  0  0  0
    2.2874    4.6445   -1.0602 H   0  0  0  0  0  0  0  0  0  0  0  0
    2.1902    6.5504   -2.4399 H   0  0  0  0  0  0  0  0  0  0  0  0
    1.6474    5.7352   -3.8926 H   0  0  0  0  0  0  0  0  0  0  0  0
    3.3056    5.4065   -3.1378 H   0  0  0  0  0  0  0  0  0  0  0  0
    1.0119    2.7751   -1.2432 H   0  0  0  0  0  0  0  0  0  0  0  0
   -0.3785    3.3027   -3.2631 H   0  0  0  0  0  0  0  0  0  0  0  0
    1.9216    1.9288   -4.6728 H   0  0  0  0  0  0  0  0  0  0  0  0
    1.5531    3.6552   -4.9419 H   0  0  0  0  0  0  0  0  0  0  0  0
   -0.6516    1.2172   -8.7046 H   0  0  0  0  0  0  0  0  0  0  0  0
   -1.5579    1.0424   -7.1330 H   0  0  0  0  0  0  0  0  0  0  0  0
   -2.4879    3.2239   -7.3777 H   0  0  0  0  0  0  0  0  0  0  0  0
   -2.4390    2.7929   -9.1538 H   0  0  0  0  0  0  0  0  0  0  0  0
   -0.8831    4.7807   -7.7464 H   0  0  0  0  0  0  0  0  0  0  0  0
   -0.7887    4.3355   -9.5582 H   0  0  0  0  0  0  0  0  0  0  0  0
    0.4443    2.4585   -9.1576 H   0  0  0  0  0  0  0  0  0  0  0  0
    2.0473    4.7208   -7.7855 H   0  0  0  0  0  0  0  0  0  0  0  0
    2.5574    2.6546   -9.9700 H   0  0  0  0  0  0  0  0  0  0  0  0
    3.8027    4.4898  -10.2433 H   0  0  0  0  0  0  0  0  0  0  0  0
    4.1736    4.6174   -8.4164 H   0  0  0  0  0  0  0  0  0  0  0  0
    4.8881    3.3038   -9.5055 H   0  0  0  0  0  0  0  0  0  0  0  0
    4.2979    0.7275   -9.5331 H   0  0  0  0  0  0  0  0  0  0  0  0
    4.0698    0.1553   -6.5729 H   0  0  0  0  0  0  0  0  0  0  0  0
    6.6272    0.3521   -8.1933 H   0  0  0  0  0  0  0  0  0  0  0  0
    6.1524    0.9329   -6.5087 H   0  0  0  0  0  0  0  0  0  0  0  0
    6.4311   -0.8099   -6.7956 H   0  0  0  0  0  0  0  0  0  0  0  0
    4.8771   -2.2013   -7.2616 H   0  0  0  0  0  0  0  0  0  0  0  0
    3.5741   -3.4586   -9.5008 H   0  0  0  0  0  0  0  0  0  0  0  0
    1.3565   -4.2098  -10.0074 H   0  0  0  0  0  0  0  0  0  0  0  0
   -0.5842   -3.0260   -9.0712 H   0  0  0  0  0  0  0  0  0  0  0  0
   -0.2372   -1.0214   -7.5830 H   0  0  0  0  0  0  0  0  0  0  0  0
    2.0569   -0.3129   -7.1103 H   0  0  0  0  0  0  0  0  0  0  0  0
    5.5637   -0.8647   -9.4867 H   0  0  0  0  0  0  0  0  0  0  0  0
    1.4086    6.5686  -10.4199 H   0  0  0  0  0  0  0  0  0  0  0  0
    0.8943    6.4201   -8.7206 H   0  0  0  0  0  0  0  0  0  0  0  0
    2.6689    6.2836   -9.1887 H   0  0  0  0  0  0  0  0  0  0  0  0
   -1.1725    2.0730   -1.5720 H   0  0  0  0  0  0  0  0  0  0  0  0
   -1.9049    1.9711   -3.1884 H   0  0  0  0  0  0  0  0  0  0  0  0
   -1.6225    0.4546   -2.3288 H   0  0  0  0  0  0  0  0  0  0  0  0
    4.7988    2.8575   -2.6447 H   0  0  0  0  0  0  0  0  0  0  0  0
    3.9648    1.5816   -3.5408 H   0  0  0  0  0  0  0  0  0  0  0  0
    3.6242    3.2859   -3.9571 H   0  0  0  0  0  0  0  0  0  0  0  0
    1.5240    1.6487    0.2973 H   0  0  0  0  0  0  0  0  0  0  0  0
    1.5036   -0.5843    0.8480 H   0  0  0  0  0  0  0  0  0  0  0  0
    0.3260   -0.5966   -1.2119 H   0  0  0  0  0  0  0  0  0  0  0  0
    1.5830   -1.8844   -1.4334 H   0  0  0  0  0  0  0  0  0  0  0  0
    1.9096   -0.3016   -2.1466 H   0  0  0  0  0  0  0  0  0  0  0  0
    3.7303   -1.2387    1.1037 H   0  0  0  0  0  0  0  0  0  0  0  0
    3.1624   -2.2711   -0.2018 H   0  0  0  0  0  0  0  0  0  0  0  0
    4.1944   -0.9150   -0.6409 H   0  0  0  0  0  0  0  0  0  0  0  0
    4.2448    0.7223    1.2832 H   0  0  0  0  0  0  0  0  0  0  0  0
    3.8668    0.4148    3.7439 H   0  0  0  0  0  0  0  0  0  0  0  0
    4.0064    3.5044    4.0067 H   0  0  0  0  0  0  0  0  0  0  0  0
    6.0993    1.5205    2.9100 H   0  0  0  0  0  0  0  0  0  0  0  0
    6.3607    3.2173    3.3525 H   0  0  0  0  0  0  0  0  0  0  0  0
    5.1464    2.7934    2.0383 H   0  0  0  0  0  0  0  0  0  0  0  0
    4.6741    3.0711    6.1067 H   0  0  0  0  0  0  0  0  0  0  0  0
    4.9970    1.3511    5.8325 H   0  0  0  0  0  0  0  0  0  0  0  0
    6.2106    2.5708    5.3320 H   0  0  0  0  0  0  0  0  0  0  0  0
    2.3588   -0.6093    4.6520 H   0  0  0  0  0  0  0  0  0  0  0  0
    2.2160    0.0847    6.2925 H   0  0  0  0  0  0  0  0  0  0  0  0
    0.7648    0.1216    5.1501 H   0  0  0  0  0  0  0  0  0  0  0  0
   -0.5058    4.2150    6.0679 H   0  0  0  0  0  0  0  0  0  0  0  0
    0.4521    3.8831    7.5423 H   0  0  0  0  0  0  0  0  0  0  0  0
   -2.7893    3.6249    5.9270 H   0  0  0  0  0  0  0  0  0  0  0  0
   -4.7016    2.2909    6.8024 H   0  0  0  0  0  0  0  0  0  0  0  0
   -2.0646    0.4920    9.6589 H   0  0  0  0  0  0  0  0  0  0  0  0
   -0.1786    1.7920    8.8391 H   0  0  0  0  0  0  0  0  0  0  0  0
   -5.0643    0.6427    9.6000 H   0  0  0  0  0  0  0  0  0  0  0  0
   -5.0375   -2.5403    9.1493 H   0  0  0  0  0  0  0  0  0  0  0  0
   -7.3338   -2.7954    8.4821 H   0  0  0  0  0  0  0  0  0  0  0  0
   -7.3072   -1.3763    7.4511 H   0  0  0  0  0  0  0  0  0  0  0  0
   -7.3357    0.0904    9.4113 H   0  0  0  0  0  0  0  0  0  0  0  0
   -8.5928   -1.1494    9.5907 H   0  0  0  0  0  0  0  0  0  0  0  0
   -5.9144   -1.3125   11.0909 H   0  0  0  0  0  0  0  0  0  0  0  0
   -7.5143   -0.8147   11.7010 H   0  0  0  0  0  0  0  0  0  0  0  0
   -7.8153   -3.3732   10.4690 H   0  0  0  0  0  0  0  0  0  0  0  0
   -7.2417   -5.4722   12.0066 H   0  0  0  0  0  0  0  0  0  0  0  0
   -7.3309   -4.9854   13.7874 H   0  0  0  0  0  0  0  0  0  0  0  0
   -5.2062   -2.4750    6.1553 H   0  0  0  0  0  0  0  0  0  0  0  0
   -3.9199   -5.8321    6.5969 H   0  0  0  0  0  0  0  0  0  0  0  0
   -6.9030   -5.5437    6.1623 H   0  0  0  0  0  0  0  0  0  0  0  0
   -5.1656   -7.0369    8.0769 H   0  0  0  0  0  0  0  0  0  0  0  0
   -6.6549   -7.8203    7.4718 H   0  0  0  0  0  0  0  0  0  0  0  0
   -6.7944   -6.1862    8.3316 H   0  0  0  0  0  0  0  0  0  0  0  0
   -6.6308   -7.1749    4.4895 H   0  0  0  0  0  0  0  0  0  0  0  0
   -5.9654   -8.2595    5.7376 H   0  0  0  0  0  0  0  0  0  0  0  0
   -4.8519   -7.2550    4.8057 H   0  0  0  0  0  0  0  0  0  0  0  0
   -5.2538   -3.9450    4.5869 H   0  0  0  0  0  0  0  0  0  0  0  0
   -2.6863   -3.4872    3.0086 H   0  0  0  0  0  0  0  0  0  0  0  0
   -3.9625   -4.6270    2.2968 H   0  0  0  0  0  0  0  0  0  0  0  0
   -2.2940   -6.4621    2.3578 H   0  0  0  0  0  0  0  0  0  0  0  0
   -1.0543   -5.3253    3.0617 H   0  0  0  0  0  0  0  0  0  0  0  0
   -2.4337   -5.0106    0.3112 H   0  0  0  0  0  0  0  0  0  0  0  0
   -1.1443   -3.9692    1.0277 H   0  0  0  0  0  0  0  0  0  0  0  0
   -0.8024   -6.9524    0.5716 H   0  0  0  0  0  0  0  0  0  0  0  0
    0.4265   -5.8124    1.1743 H   0  0  0  0  0  0  0  0  0  0  0  0
    0.2359   -4.5006   -0.9533 H   0  0  0  0  0  0  0  0  0  0  0  0
   -1.0578   -5.6767   -1.5167 H   0  0  0  0  0  0  0  0  0  0  0  0
    2.2301   -9.1293   -2.9553 H   0  0  0  0  0  0  0  0  0  0  0  0
    4.0413   -7.4440   -2.2273 H   0  0  0  0  0  0  0  0  0  0  0  0
  1  2  1  0
  2  3  1  0
  3  4  1  0
  3  5  1  0
  5  6  1  0
  6  7  1  0
  7  8  1  0
  8  9  2  0
  8 10  1  0
 10 11  1  0
 11 12  1  0
 12 13  1  0
 13 14  1  0
 14 15  1  0
 15 16  1  0
 16 17  1  0
 16 18  1  0
 18 19  2  0
 18 20  1  0
 20 21  1  0
 21 22  1  0
 21 23  1  0
 23 24  1  0
 24 25  2  0
 25 26  1  0
 26 27  2  0
 27 28  1  0
 28 29  2  0
 23 30  1  0
 15 31  1  0
 31 32  1  0
  6 33  1  0
 33 34  1  0
  5 35  1  0
 35 36  1  0
 35 37  1  0
 37 38  2  0
 37 39  1  0
 39 40  1  0
 40 41  1  0
 40 42  1  0
 39 43  1  0
 43 44  1  0
 44 45  2  0
 44 46  1  0
 46 47  1  0
 47 48  1  0
 47 49  1  0
 46 50  1  0
 50 51  1  0
 50 52  1  0
 52 53  2  0
 52 54  1  0
 54 55  1  0
 55 56  1  0
 56 57  1  0
 57 58  2  0
 58 59  1  0
 59 60  2  0
 60 61  1  0
 59 62  1  0
 62 63  1  0
 63 64  2  0
 63 65  1  0
 65 66  1  0
 66 67  1  0
 67 68  1  0
 68 69  1  0
 69 70  1  0
 70 71  2  0
 70 72  1  0
 65 73  1  0
 73 74  1  0
 74 75  2  0
 74 76  1  0
 76 77  1  0
 77 78  1  0
 77 79  1  0
 76 80  1  0
 80 81  1  0
 81 82  2  0
 81 83  1  0
 83 84  1  0
 84 85  1  0
 85 86  1  0
 86 87  1  0
 87 88  1  0
 88 89  1  0
 89 90  2  0
 89 91  1  0
 91 92  2  0
 92 93  1  0
 93 94  2  0
 14 10  1  0
 29 24  1  0
 61 56  2  0
 93 88  1  0
  1 95  1  0
  1 96  1  0
  1 97  1  0
  2 98  1  0
  2 99  1  0
  3100  1  1
  4101  1  0
  4102  1  0
  4103  1  0
  5104  1  1
  6105  1  6
  7106  1  0
  7107  1  0
 11108  1  0
 11109  1  0
 12110  1  0
 12111  1  0
 13112  1  0
 13113  1  0
 14114  1  6
 15115  1  1
 16116  1  6
 17117  1  0
 17118  1  0
 17119  1  0
 20120  1  0
 21121  1  1
 22122  1  0
 22123  1  0
 22124  1  0
 23125  1  1
 25126  1  0
 26127  1  0
 27128  1  0
 28129  1  0
 29130  1  0
 30131  1  0
 32132  1  0
 32133  1  0
 32134  1  0
 34135  1  0
 34136  1  0
 34137  1  0
 36138  1  0
 36139  1  0
 36140  1  0
 39141  1  1
 40142  1  0
 41143  1  0
 41144  1  0
 41145  1  0
 42146  1  0
 42147  1  0
 42148  1  0
 43149  1  0
 46150  1  6
 47151  1  0
 48152  1  0
 48153  1  0
 48154  1  0
 49155  1  0
 49156  1  0
 49157  1  0
 51158  1  0
 51159  1  0
 51160  1  0
 55161  1  0
 55162  1  0
 57163  1  0
 58164  1  0
 60165  1  0
 61166  1  0
 62167  1  0
 65168  1  1
 66169  1  0
 66170  1  0
 67171  1  0
 67172  1  0
 68173  1  0
 68174  1  0
 69175  1  0
 72176  1  0
 72177  1  0
 73178  1  0
 76179  1  1
 77180  1  0
 78181  1  0
 78182  1  0
 78183  1  0
 79184  1  0
 79185  1  0
 79186  1  0
 80187  1  0
 83188  1  0
 83189  1  0
 84190  1  0
 84191  1  0
 85192  1  0
 85193  1  0
 86194  1  0
 86195  1  0
 87196  1  0
 87197  1  0
 91198  1  0
 92199  1  0
M  END
$$$$

     RDKit          3D

199202  0  0  0  0  0  0  0  0999 V2000
   -3.4355   -4.0108   -3.8994 C   0  0  0  0  0  0  0  0  0  0  0  0
   -2.5841   -2.8790   -4.2727 C   0  0  0  0  0  0  0  0  0  0  0  0
   -3.0118   -1.5079   -4.0790 C   0  0  2  0  0  0  0  0  0  0  0  0
   -1.8586   -0.6090   -4.6901 C   0  0  0  0  0  0  0  0  0  0  0  0
   -3.3291   -0.8983   -2.7416 C   0  0  1  0  0  0  0  0  0  0  0  0
   -4.3932   -1.4764   -1.9996 C   0  0  1  0  0  0  0  0  0  0  0  0
   -4.7176   -0.7542   -0.6814 C   0  0  0  0  0  0  0  0  0  0  0  0
   -5.1854    0.6309   -0.8335 C   0  0  0  0  0  0  0  0  0  0  0  0
   -5.4943    1.0016   -1.9921 O   0  0  0  0  0  0  0  0  0  0  0  0
   -5.2629    1.4382    0.3248 N   0  0  0  0  0  0  0  0  0  0  0  0
   -4.7263    1.0098    1.6420 C   0  0  0  0  0  0  0  0  0  0  0  0
   -4.4064    2.2829    2.3841 C   0  0  0  0  0  0  0  0  0  0  0  0
   -4.6590    3.3686    1.3218 C   0  0  0  0  0  0  0  0  0  0  0  0
   -5.8741    2.6842    0.6318 C   0  0  1  0  0  0  0  0  0  0  0  0
   -6.4340    3.5670   -0.3816 C   0  0  1  0  0  0  0  0  0  0  0  0
   -7.2017    4.6725    0.4247 C   0  0  1  0  0  0  0  0  0  0  0  0
   -7.8861    5.6377   -0.4438 C   0  0  0  0  0  0  0  0  0  0  0  0
   -7.9859    4.0193    1.4829 C   0  0  0  0  0  0  0  0  0  0  0  0
   -7.9530    4.3741    2.6940 O   0  0  0  0  0  0  0  0  0  0  0  0
   -8.8424    2.9099    1.1861 N   0  0  0  0  0  0  0  0  0  0  0  0
   -9.6252    2.2010    2.1684 C   0  0  2  0  0  0  0  0  0  0  0  0
   -8.9948    0.8341    2.4487 C   0  0  0  0  0  0  0  0  0  0  0  0
  -11.0432    1.9230    1.7385 C   0  0  1  0  0  0  0  0  0  0  0  0
  -11.7861    1.0926    2.7094 C   0  0  0  0  0  0  0  0  0  0  0  0
  -11.9617   -0.2681    2.4704 C   0  0  0  0  0  0  0  0  0  0  0  0
  -12.6413   -1.1031    3.3287 C   0  0  0  0  0  0  0  0  0  0  0  0
  -13.1927   -0.5886    4.5048 C   0  0  0  0  0  0  0  0  0  0  0  0
  -13.0269    0.7635    4.7638 C   0  0  0  0  0  0  0  0  0  0  0  0
  -12.3382    1.5691    3.8774 C   0  0  0  0  0  0  0  0  0  0  0  0
  -11.6944    3.1120    1.5067 O   0  0  0  0  0  0  0  0  0  0  0  0
   -5.5758    4.1345   -1.2435 O   0  0  0  0  0  0  0  0  0  0  0  0
   -5.8783    4.2399   -2.5645 C   0  0  0  0  0  0  0  0  0  0  0  0
   -5.5661   -1.5671   -2.7382 O   0  0  0  0  0  0  0  0  0  0  0  0
   -6.3583   -2.6340   -2.6637 C   0  0  0  0  0  0  0  0  0  0  0  0
   -2.0702   -0.6227   -1.9899 N   0  0  0  0  0  0  0  0  0  0  0  0
   -1.5274    0.7455   -2.0537 C   0  0  0  0  0  0  0  0  0  0  0  0
   -1.5118   -1.6341   -1.2357 C   0  0  0  0  0  0  0  0  0  0  0  0
   -2.1955   -2.7398   -1.1693 O   0  0  0  0  0  0  0  0  0  0  0  0
   -0.2696   -1.6919   -0.4673 C   0  0  1  0  0  0  0  0  0  0  0  0
    0.6445   -0.6222   -0.2298 C   0  0  0  0  0  0  0  0  0  0  0  0
    1.7906   -1.1842    0.6747 C   0  0  0  0  0  0  0  0  0  0  0  0
    1.4169   -0.2556   -1.5137 C   0  0  0  0  0  0  0  0  0  0  0  0
   -0.6417   -2.3927    0.7469 N   0  0  0  0  0  0  0  0  0  0  0  0
   -0.6222   -3.7439    1.0379 C   0  0  0  0  0  0  0  0  0  0  0  0
   -0.2344   -4.6485    0.2154 O   0  0  0  0  0  0  0  0  0  0  0  0
   -1.0917   -4.1698    2.4023 C   0  0  1  0  0  0  0  0  0  0  0  0
   -0.5648   -5.4944    2.7986 C   0  0  0  0  0  0  0  0  0  0  0  0
    0.9117   -5.6633    2.8662 C   0  0  0  0  0  0  0  0  0  0  0  0
   -1.1043   -6.6263    1.9166 C   0  0  0  0  0  0  0  0  0  0  0  0
   -1.1909   -3.1512    3.3764 N   0  0  0  0  0  0  0  0  0  0  0  0
   -2.5142   -2.6492    3.8392 C   0  0  0  0  0  0  0  0  0  0  0  0
   -0.0828   -2.4974    4.0153 C   0  0  0  0  0  0  0  0  0  0  0  0
    1.0554   -2.8654    3.6625 O   0  0  0  0  0  0  0  0  0  0  0  0
   -0.2123   -1.5166    4.9619 O   0  0  0  0  0  0  0  0  0  0  0  0
    0.8101   -0.8115    5.6154 C   0  0  0  0  0  0  0  0  0  0  0  0
    1.6509    0.0256    4.7175 C   0  0  0  0  0  0  0  0  0  0  0  0
    1.2321    1.3340    4.5084 C   0  0  0  0  0  0  0  0  0  0  0  0
    1.9229    2.2071    3.6592 C   0  0  0  0  0  0  0  0  0  0  0  0
    3.0333    1.7524    3.0258 C   0  0  0  0  0  0  0  0  0  0  0  0
    3.4538    0.4297    3.2412 C   0  0  0  0  0  0  0  0  0  0  0  0
    2.7781   -0.4281    4.0759 C   0  0  0  0  0  0  0  0  0  0  0  0
    3.8705    2.4843    2.1379 N   0  0  0  0  0  0  0  0  0  0  0  0
    3.4070    2.6563    0.8234 C   0  0  0  0  0  0  0  0  0  0  0  0
    2.2480    2.1834    0.5578 O   0  0  0  0  0  0  0  0  0  0  0  0
    4.1143    3.3149   -0.2843 C   0  0  1  0  0  0  0  0  0  0  0  0
    3.4045    4.4147   -0.9732 C   0  0  0  0  0  0  0  0  0  0  0  0
    3.0086    5.5900   -0.1355 C   0  0  0  0  0  0  0  0  0  0  0  0
    2.2811    6.6524   -0.9601 C   0  0  0  0  0  0  0  0  0  0  0  0
    3.1129    7.1571   -2.0306 N   0  0  0  0  0  0  0  0  0  0  0  0
    2.6970    8.1528   -2.9543 C   0  0  0  0  0  0  0  0  0  0  0  0
    1.5466    8.6387   -2.8630 O   0  0  0  0  0  0  0  0  0  0  0  0
    3.5644    8.6279   -4.0080 N   0  0  0  0  0  0  0  0  0  0  0  0
    5.5207    3.5721   -0.0077 N   0  0  0  0  0  0  0  0  0  0  0  0
    6.3454    2.4252    0.0443 C   0  0  0  0  0  0  0  0  0  0  0  0
    5.7132    1.3059   -0.1320 O   0  0  0  0  0  0  0  0  0  0  0  0
    7.7789    2.3009    0.2596 C   0  0  1  0  0  0  0  0  0  0  0  0
    8.5179    3.2436    1.0836 C   0  0  0  0  0  0  0  0  0  0  0  0
    8.4889    4.6766    0.5835 C   0  0  0  0  0  0  0  0  0  0  0  0
    8.0912    3.2715    2.5539 C   0  0  0  0  0  0  0  0  0  0  0  0
    8.1454    0.9112    0.5293 N   0  0  0  0  0  0  0  0  0  0  0  0
    8.0234   -0.0043   -0.5503 C   0  0  0  0  0  0  0  0  0  0  0  0
    7.6257    0.3415   -1.6876 O   0  0  0  0  0  0  0  0  0  0  0  0
    8.3628   -1.4660   -0.3943 C   0  0  0  0  0  0  0  0  0  0  0  0
    7.7037   -2.2769   -1.4843 C   0  0  0  0  0  0  0  0  0  0  0  0
    8.0869   -3.7422   -1.2675 C   0  0  0  0  0  0  0  0  0  0  0  0
    7.4115   -4.6164   -2.2969 C   0  0  0  0  0  0  0  0  0  0  0  0
    7.7662   -4.3307   -3.7133 C   0  0  0  0  0  0  0  0  0  0  0  0
    9.1441   -4.5478   -4.0597 N   0  0  0  0  0  0  0  0  0  0  0  0
    9.5960   -5.8289   -4.5624 C   0  0  0  0  0  0  0  0  0  0  0  0
    8.9117   -6.8598   -4.7601 O   0  0  0  0  0  0  0  0  0  0  0  0
   11.0305   -5.7549   -4.8259 C   0  0  0  0  0  0  0  0  0  0  0  0
   11.4624   -4.5197   -4.5143 C   0  0  0  0  0  0  0  0  0  0  0  0
   10.2943   -3.7457   -4.0299 C   0  0  0  0  0  0  0  0  0  0  0  0
   10.3461   -2.5602   -3.6573 O   0  0  0  0  0  0  0  0  0  0  0  0
   -3.5603   -4.2478   -2.8506 H   0  0  0  0  0  0  0  0  0  0  0  0
   -2.9781   -4.9700   -4.3383 H   0  0  0  0  0  0  0  0  0  0  0  0
   -4.4159   -3.9483   -4.4735 H   0  0  0  0  0  0  0  0  0  0  0  0
   -2.2892   -3.0076   -5.3849 H   0  0  0  0  0  0  0  0  0  0  0  0
   -1.5633   -2.9840   -3.7887 H   0  0  0  0  0  0  0  0  0  0  0  0
   -3.8471   -1.2869   -4.8135 H   0  0  0  0  0  0  0  0  0  0  0  0
   -0.9049   -0.8525   -4.2472 H   0  0  0  0  0  0  0  0  0  0  0  0
   -1.7857   -0.8534   -5.7764 H   0  0  0  0  0  0  0  0  0  0  0  0
   -2.1025    0.4349   -4.6041 H   0  0  0  0  0  0  0  0  0  0  0  0
   -3.6451    0.1509   -3.0930 H   0  0  0  0  0  0  0  0  0  0  0  0
   -4.3471   -2.5419   -1.6201 H   0  0  0  0  0  0  0  0  0  0  0  0
   -5.4733   -1.3102   -0.0938 H   0  0  0  0  0  0  0  0  0  0  0  0
   -3.8039   -0.7850   -0.0177 H   0  0  0  0  0  0  0  0  0  0  0  0
   -3.8030    0.4530    1.5426 H   0  0  0  0  0  0  0  0  0  0  0  0
   -5.5360    0.5038    2.1500 H   0  0  0  0  0  0  0  0  0  0  0  0
   -5.1276    2.4367    3.2187 H   0  0  0  0  0  0  0  0  0  0  0  0
   -3.3986    2.2911    2.7783 H   0  0  0  0  0  0  0  0  0  0  0  0
   -4.9368    4.2706    1.8470 H   0  0  0  0  0  0  0  0  0  0  0  0
   -3.7900    3.4027    0.6662 H   0  0  0  0  0  0  0  0  0  0  0  0
   -6.5646    2.5226    1.5128 H   0  0  0  0  0  0  0  0  0  0  0  0
   -7.3226    3.0888   -0.9128 H   0  0  0  0  0  0  0  0  0  0  0  0
   -6.3827    5.2542    0.9587 H   0  0  0  0  0  0  0  0  0  0  0  0
   -8.5498    6.2722    0.2003 H   0  0  0  0  0  0  0  0  0  0  0  0
   -7.1992    6.3311   -0.9252 H   0  0  0  0  0  0  0  0  0  0  0  0
   -8.5663    5.0866   -1.1312 H   0  0  0  0  0  0  0  0  0  0  0  0
   -8.9379    2.5578    0.1865 H   0  0  0  0  0  0  0  0  0  0  0  0
   -9.6121    2.7310    3.1122 H   0  0  0  0  0  0  0  0  0  0  0  0
   -8.9231    0.2110    1.5270 H   0  0  0  0  0  0  0  0  0  0  0  0
   -8.0160    0.9244    2.9697 H   0  0  0  0  0  0  0  0  0  0  0  0
   -9.6790    0.3140    3.1383 H   0  0  0  0  0  0  0  0  0  0  0  0
  -11.0374    1.3767    0.7467 H   0  0  0  0  0  0  0  0  0  0  0  0
  -11.5339   -0.6839    1.5565 H   0  0  0  0  0  0  0  0  0  0  0  0
  -12.7729   -2.1655    3.1307 H   0  0  0  0  0  0  0  0  0  0  0  0
  -13.7199   -1.2569    5.1569 H   0  0  0  0  0  0  0  0  0  0  0  0
  -13.4609    1.1192    5.6882 H   0  0  0  0  0  0  0  0  0  0  0  0
  -12.2324    2.6146    4.1173 H   0  0  0  0  0  0  0  0  0  0  0  0
  -12.6527    2.9596    1.2558 H   0  0  0  0  0  0  0  0  0  0  0  0
   -6.8000    4.8570   -2.7552 H   0  0  0  0  0  0  0  0  0  0  0  0
   -6.1144    3.2591   -3.0150 H   0  0  0  0  0  0  0  0  0  0  0  0
   -5.0181    4.6514   -3.1648 H   0  0  0  0  0  0  0  0  0  0  0  0
   -6.0416   -3.6393   -2.8888 H   0  0  0  0  0  0  0  0  0  0  0  0
   -7.1539   -2.4422   -3.4680 H   0  0  0  0  0  0  0  0  0  0  0  0
   -7.0071   -2.7082   -1.7558 H   0  0  0  0  0  0  0  0  0  0  0  0
   -0.7418    0.9144   -2.7632 H   0  0  0  0  0  0  0  0  0  0  0  0
   -1.3760    1.1487   -1.0168 H   0  0  0  0  0  0  0  0  0  0  0  0
   -2.3505    1.4506   -2.4123 H   0  0  0  0  0  0  0  0  0  0  0  0
    0.3390   -2.4842   -1.0757 H   0  0  0  0  0  0  0  0  0  0  0  0
    0.3354    0.2651    0.3220 H   0  0  0  0  0  0  0  0  0  0  0  0
    2.7052   -0.5686    0.4866 H   0  0  0  0  0  0  0  0  0  0  0  0
    1.4110   -1.0950    1.7131 H   0  0  0  0  0  0  0  0  0  0  0  0
    1.9089   -2.2260    0.3960 H   0  0  0  0  0  0  0  0  0  0  0  0
    0.9986   -0.8259   -2.3918 H   0  0  0  0  0  0  0  0  0  0  0  0
    1.4041    0.8375   -1.6906 H   0  0  0  0  0  0  0  0  0  0  0  0
    2.4823   -0.5370   -1.4802 H   0  0  0  0  0  0  0  0  0  0  0  0
   -0.9852   -1.7381    1.5288 H   0  0  0  0  0  0  0  0  0  0  0  0
   -2.2090   -4.4302    2.1214 H   0  0  0  0  0  0  0  0  0  0  0  0
   -1.0308   -5.7382    3.8204 H   0  0  0  0  0  0  0  0  0  0  0  0
    1.2053   -6.7429    2.6406 H   0  0  0  0  0  0  0  0  0  0  0  0
    1.4947   -5.0797    2.1588 H   0  0  0  0  0  0  0  0  0  0  0  0
    1.2147   -5.5462    3.9239 H   0  0  0  0  0  0  0  0  0  0  0  0
   -1.6257   -7.4152    2.5056 H   0  0  0  0  0  0  0  0  0  0  0  0
   -0.3070   -7.1170    1.3321 H   0  0  0  0  0  0  0  0  0  0  0  0
   -1.7964   -6.1501    1.1943 H   0  0  0  0  0  0  0  0  0  0  0  0
   -2.5059   -1.5345    3.8428 H   0  0  0  0  0  0  0  0  0  0  0  0
   -3.2580   -3.0021    3.1016 H   0  0  0  0  0  0  0  0  0  0  0  0
   -2.7659   -3.0752    4.8137 H   0  0  0  0  0  0  0  0  0  0  0  0
    1.4345   -1.5940    6.1286 H   0  0  0  0  0  0  0  0  0  0  0  0
    0.4404   -0.1737    6.4294 H   0  0  0  0  0  0  0  0  0  0  0  0
    0.3383    1.6924    5.0113 H   0  0  0  0  0  0  0  0  0  0  0  0
    1.6096    3.2190    3.4863 H   0  0  0  0  0  0  0  0  0  0  0  0
    4.3372    0.0299    2.7444 H   0  0  0  0  0  0  0  0  0  0  0  0
    3.1513   -1.4236    4.2171 H   0  0  0  0  0  0  0  0  0  0  0  0
    4.7847    2.9041    2.3878 H   0  0  0  0  0  0  0  0  0  0  0  0
    4.1534    2.4594   -1.0634 H   0  0  0  0  0  0  0  0  0  0  0  0
    2.4655    4.0757   -1.4968 H   0  0  0  0  0  0  0  0  0  0  0  0
    4.0509    4.7460   -1.8477 H   0  0  0  0  0  0  0  0  0  0  0  0
    3.9543    6.0462    0.2696 H   0  0  0  0  0  0  0  0  0  0  0  0
    2.4125    5.3205    0.7449 H   0  0  0  0  0  0  0  0  0  0  0  0
    1.9880    7.4835   -0.3196 H   0  0  0  0  0  0  0  0  0  0  0  0
    1.3764    6.2143   -1.4400 H   0  0  0  0  0  0  0  0  0  0  0  0
    4.0958    6.7657   -2.1430 H   0  0  0  0  0  0  0  0  0  0  0  0
    3.5941    8.0536   -4.8942 H   0  0  0  0  0  0  0  0  0  0  0  0
    4.1391    9.4993   -3.9130 H   0  0  0  0  0  0  0  0  0  0  0  0
    5.9434    4.4923    0.1485 H   0  0  0  0  0  0  0  0  0  0  0  0
    8.1864    2.4388   -0.8230 H   0  0  0  0  0  0  0  0  0  0  0  0
    9.6176    2.9799    1.1472 H   0  0  0  0  0  0  0  0  0  0  0  0
    8.2354    4.5894   -0.4971 H   0  0  0  0  0  0  0  0  0  0  0  0
    7.8992    5.3634    1.1689 H   0  0  0  0  0  0  0  0  0  0  0  0
    9.5296    5.1240    0.5599 H   0  0  0  0  0  0  0  0  0  0  0  0
    8.4616    2.3957    3.0924 H   0  0  0  0  0  0  0  0  0  0  0  0
    8.6649    4.1488    2.9802 H   0  0  0  0  0  0  0  0  0  0  0  0
    7.0426    3.5297    2.6985 H   0  0  0  0  0  0  0  0  0  0  0  0
    8.4749    0.5974    1.4682 H   0  0  0  0  0  0  0  0  0  0  0  0
    7.9219   -1.7848    0.5709 H   0  0  0  0  0  0  0  0  0  0  0  0
    9.4623   -1.5260   -0.4437 H   0  0  0  0  0  0  0  0  0  0  0  0
    6.5965   -2.1588   -1.4246 H   0  0  0  0  0  0  0  0  0  0  0  0
    8.0188   -1.9025   -2.4652 H   0  0  0  0  0  0  0  0  0  0  0  0
    9.1778   -3.8570   -1.3885 H   0  0  0  0  0  0  0  0  0  0  0  0
    7.7898   -4.0706   -0.2725 H   0  0  0  0  0  0  0  0  0  0  0  0
    7.7005   -5.6658   -2.0494 H   0  0  0  0  0  0  0  0  0  0  0  0
    6.3080   -4.5946   -2.1754 H   0  0  0  0  0  0  0  0  0  0  0  0
    7.4406   -3.2836   -3.9925 H   0  0  0  0  0  0  0  0  0  0  0  0
    7.0932   -4.9759   -4.3523 H   0  0  0  0  0  0  0  0  0  0  0  0
   11.6799   -6.5417   -5.2082 H   0  0  0  0  0  0  0  0  0  0  0  0
   12.4851   -4.1741   -4.6058 H   0  0  0  0  0  0  0  0  0  0  0  0
  1  2  1  0
  2  3  1  0
  3  4  1  0
  3  5  1  0
  5  6  1  0
  6  7  1  0
  7  8  1  0
  8  9  2  0
  8 10  1  0
 10 11  1  0
 11 12  1  0
 12 13  1  0
 13 14  1  0
 14 15  1  0
 15 16  1  0
 16 17  1  0
 16 18  1  0
 18 19  2  0
 18 20  1  0
 20 21  1  0
 21 22  1  0
 21 23  1  0
 23 24  1  0
 24 25  2  0
 25 26  1  0
 26 27  2  0
 27 28  1  0
 28 29  2  0
 23 30  1  0
 15 31  1  0
 31 32  1  0
  6 33  1  0
 33 34  1  0
  5 35  1  0
 35 36  1  0
 35 37  1  0
 37 38  2  0
 37 39  1  0
 39 40  1  0
 40 41  1  0
 40 42  1  0
 39 43  1  0
 43 44  1  0
 44 45  2  0
 44 46  1  0
 46 47  1  0
 47 48  1  0
 47 49  1  0
 46 50  1  0
 50 51  1  0
 50 52  1  0
 52 53  2  0
 52 54  1  0
 54 55  1  0
 55 56  1  0
 56 57  1  0
 57 58  2  0
 58 59  1  0
 59 60  2  0
 60 61  1  0
 59 62  1  0
 62 63  1  0
 63 64  2  0
 63 65  1  0
 65 66  1  0
 66 67  1  0
 67 68  1  0
 68 69  1  0
 69 70  1  0
 70 71  2  0
 70 72  1  0
 65 73  1  0
 73 74  1  0
 74 75  2  0
 74 76  1  0
 76 77  1  0
 77 78  1  0
 77 79  1  0
 76 80  1  0
 80 81  1  0
 81 82  2  0
 81 83  1  0
 83 84  1  0
 84 85  1  0
 85 86  1  0
 86 87  1  0
 87 88  1  0
 88 89  1  0
 89 90  2  0
 89 91  1  0
 91 92  2  0
 92 93  1  0
 93 94  2  0
 14 10  1  0
 29 24  1  0
 61 56  2  0
 93 88  1  0
  1 95  1  0
  1 96  1  0
  1 97  1  0
  2 98  1  0
  2 99  1  0
  3100  1  6
  4101  1  0
  4102  1  0
  4103  1  0
  5104  1  6
  6105  1  1
  7106  1  0
  7107  1  0
 11108  1  0
 11109  1  0
 12110  1  0
 12111  1  0
 13112  1  0
 13113  1  0
 14114  1  1
 15115  1  6
 16116  1  1
 17117  1  0
 17118  1  0
 17119  1  0
 20120  1  0
 21121  1  1
 22122  1  0
 22123  1  0
 22124  1  0
 23125  1  6
 25126  1  0
 26127  1  0
 27128  1  0
 28129  1  0
 29130  1  0
 30131  1  0
 32132  1  0
 32133  1  0
 32134  1  0
 34135  1  0
 34136  1  0
 34137  1  0
 36138  1  0
 36139  1  0
 36140  1  0
 39141  1  6
 40142  1  0
 41143  1  0
 41144  1  0
 41145  1  0
 42146  1  0
 42147  1  0
 42148  1  0
 43149  1  0
 46150  1  6
 47151  1  0
 48152  1  0
 48153  1  0
 48154  1  0
 49155  1  0
 49156  1  0
 49157  1  0
 51158  1  0
 51159  1  0
 51160  1  0
 55161  1  0
 55162  1  0
 57163  1  0
 58164  1  0
 60165  1  0
 61166  1  0
 62167  1  0
 65168  1  6
 66169  1  0
 66170  1  0
 67171  1  0
 67172  1  0
 68173  1  0
 68174  1  0
 69175  1  0
 72176  1  0
 72177  1  0
 73178  1  0
 76179  1  6
 77180  1  0
 78181  1  0
 78182  1  0
 78183  1  0
 79184  1  0
 79185  1  0
 79186  1  0
 80187  1  0
 83188  1  0
 83189  1  0
 84190  1  0
 84191  1  0
 85192  1  0
 85193  1  0
 86194  1  0
 86195  1  0
 87196  1  0
 87197  1  0
 91198  1  0
 92199  1  0
M  END
$$$$

     RDKit          3D

199202  0  0  0  0  0  0  0  0999 V2000
    5.4917    0.8928    7.1809 C   0  0  0  0  0  0  0  0  0  0  0  0
    4.6962    1.7865    6.2586 C   0  0  0  0  0  0  0  0  0  0  0  0
    5.3685    1.9015    4.8978 C   0  0  2  0  0  0  0  0  0  0  0  0
    6.7343    2.4914    5.1457 C   0  0  0  0  0  0  0  0  0  0  0  0
    4.5876    2.5105    3.8302 C   0  0  1  0  0  0  0  0  0  0  0  0
    5.2267    2.6250    2.4662 C   0  0  1  0  0  0  0  0  0  0  0  0
    5.5534    1.4596    1.6596 C   0  0  0  0  0  0  0  0  0  0  0  0
    6.1516    1.8986    0.3739 C   0  0  0  0  0  0  0  0  0  0  0  0
    5.4010    2.6731   -0.3308 O   0  0  0  0  0  0  0  0  0  0  0  0
    7.3985    1.5945   -0.1667 N   0  0  0  0  0  0  0  0  0  0  0  0
    7.8087    2.1719   -1.4714 C   0  0  0  0  0  0  0  0  0  0  0  0
    8.5029    1.0134   -2.1018 C   0  0  0  0  0  0  0  0  0  0  0  0
    9.3378    0.4876   -0.9537 C   0  0  0  0  0  0  0  0  0  0  0  0
    8.5205    0.7689    0.2922 C   0  0  1  0  0  0  0  0  0  0  0  0
    9.3229    1.5034    1.3280 C   0  0  1  0  0  0  0  0  0  0  0  0
   10.5221    0.7628    1.7668 C   0  0  1  0  0  0  0  0  0  0  0  0
   11.2264    1.7039    2.8020 C   0  0  0  0  0  0  0  0  0  0  0  0
   10.4543   -0.5589    2.3388 C   0  0  0  0  0  0  0  0  0  0  0  0
   10.7541   -0.6673    3.5975 O   0  0  0  0  0  0  0  0  0  0  0  0
   10.1160   -1.7813    1.7343 N   0  0  0  0  0  0  0  0  0  0  0  0
   10.1272   -3.0406    2.4470 C   0  0  2  0  0  0  0  0  0  0  0  0
   11.1248   -3.9900    1.8138 C   0  0  0  0  0  0  0  0  0  0  0  0
    8.7781   -3.6770    2.6265 C   0  0  1  0  0  0  0  0  0  0  0  0
    8.0273   -3.8839    1.3712 C   0  0  0  0  0  0  0  0  0  0  0  0
    6.9449   -3.0512    1.1282 C   0  0  0  0  0  0  0  0  0  0  0  0
    6.1676   -3.1461   -0.0057 C   0  0  0  0  0  0  0  0  0  0  0  0
    6.5168   -4.1270   -0.9102 C   0  0  0  0  0  0  0  0  0  0  0  0
    7.5830   -4.9874   -0.7266 C   0  0  0  0  0  0  0  0  0  0  0  0
    8.3111   -4.8298    0.4283 C   0  0  0  0  0  0  0  0  0  0  0  0
    8.9751   -4.8855    3.3209 O   0  0  0  0  0  0  0  0  0  0  0  0
    9.7485    2.7183    0.7135 O   0  0  0  0  0  0  0  0  0  0  0  0
    9.2171    3.8040    1.3866 C   0  0  0  0  0  0  0  0  0  0  0  0
    4.4895    3.5683    1.7534 O   0  0  0  0  0  0  0  0  0  0  0  0
    5.0747    4.7972    1.6275 C   0  0  0  0  0  0  0  0  0  0  0  0
    3.1815    2.1359    3.7658 N   0  0  0  0  0  0  0  0  0  0  0  0
    2.2418    3.2780    3.8871 C   0  0  0  0  0  0  0  0  0  0  0  0
    2.7209    0.8088    3.6368 C   0  0  0  0  0  0  0  0  0  0  0  0
    3.6957   -0.0647    3.7833 O   0  0  0  0  0  0  0  0  0  0  0  0
    1.4435    0.2236    3.3867 C   0  0  1  0  0  0  0  0  0  0  0  0
    0.8216   -0.4044    4.6580 C   0  0  0  0  0  0  0  0  0  0  0  0
    0.5857    0.5720    5.7491 C   0  0  0  0  0  0  0  0  0  0  0  0
    1.6912   -1.5255    5.1817 C   0  0  0  0  0  0  0  0  0  0  0  0
    0.4485    1.0258    2.7401 N   0  0  0  0  0  0  0  0  0  0  0  0
   -0.5469    0.3264    1.9803 C   0  0  0  0  0  0  0  0  0  0  0  0
   -0.4260   -0.9391    1.9954 O   0  0  0  0  0  0  0  0  0  0  0  0
   -1.6472    0.8842    1.2227 C   0  0  1  0  0  0  0  0  0  0  0  0
   -2.9109    0.7614    2.0668 C   0  0  0  0  0  0  0  0  0  0  0  0
   -2.8303    1.4685    3.3782 C   0  0  0  0  0  0  0  0  0  0  0  0
   -4.1353    1.1426    1.2575 C   0  0  0  0  0  0  0  0  0  0  0  0
   -1.4489    2.1686    0.6628 N   0  0  0  0  0  0  0  0  0  0  0  0
   -1.2180    3.4262    1.3109 C   0  0  0  0  0  0  0  0  0  0  0  0
   -1.5123    2.2195   -0.7948 C   0  0  0  0  0  0  0  0  0  0  0  0
   -1.7222    1.1221   -1.3620 O   0  0  0  0  0  0  0  0  0  0  0  0
   -1.3616    3.3693   -1.5154 O   0  0  0  0  0  0  0  0  0  0  0  0
   -1.4341    3.4791   -2.9315 C   0  0  0  0  0  0  0  0  0  0  0  0
   -2.7733    3.0360   -3.4235 C   0  0  0  0  0  0  0  0  0  0  0  0
   -3.0336    1.7749   -3.8990 C   0  0  0  0  0  0  0  0  0  0  0  0
   -4.3469    1.4386   -4.2666 C   0  0  0  0  0  0  0  0  0  0  0  0
   -5.3899    2.3187   -4.1732 C   0  0  0  0  0  0  0  0  0  0  0  0
   -5.0870    3.5886   -3.6911 C   0  0  0  0  0  0  0  0  0  0  0  0
   -3.8083    3.9422   -3.3232 C   0  0  0  0  0  0  0  0  0  0  0  0
   -6.7436    2.0343   -4.4244 N   0  0  0  0  0  0  0  0  0  0  0  0
   -7.2827    0.7855   -4.8218 C   0  0  0  0  0  0  0  0  0  0  0  0
   -6.5874   -0.2100   -5.0436 O   0  0  0  0  0  0  0  0  0  0  0  0
   -8.8215    0.7652   -4.9329 C   0  0  1  0  0  0  0  0  0  0  0  0
   -9.2621    1.4570   -6.1266 C   0  0  0  0  0  0  0  0  0  0  0  0
  -10.6876    1.6805   -6.4417 C   0  0  0  0  0  0  0  0  0  0  0  0
  -11.6743    0.6217   -6.5832 C   0  0  0  0  0  0  0  0  0  0  0  0
  -12.0050   -0.1980   -5.4538 N   0  0  0  0  0  0  0  0  0  0  0  0
  -13.0493   -1.1670   -5.7056 C   0  0  0  0  0  0  0  0  0  0  0  0
  -13.5777   -1.2428   -6.8630 O   0  0  0  0  0  0  0  0  0  0  0  0
  -13.5377   -2.0531   -4.7329 N   0  0  0  0  0  0  0  0  0  0  0  0
   -9.0652   -0.6955   -4.9627 N   0  0  0  0  0  0  0  0  0  0  0  0
   -8.5006   -1.3863   -3.8551 C   0  0  0  0  0  0  0  0  0  0  0  0
   -7.8464   -0.7254   -2.9639 O   0  0  0  0  0  0  0  0  0  0  0  0
   -8.5741   -2.8397   -3.6082 C   0  0  1  0  0  0  0  0  0  0  0  0
   -9.1325   -3.7139   -4.6343 C   0  0  0  0  0  0  0  0  0  0  0  0
  -10.5725   -3.4136   -4.9844 C   0  0  0  0  0  0  0  0  0  0  0  0
   -8.3348   -3.7828   -5.9076 C   0  0  0  0  0  0  0  0  0  0  0  0
   -7.2884   -3.3005   -3.1718 N   0  0  0  0  0  0  0  0  0  0  0  0
   -6.6145   -3.0643   -1.9716 C   0  0  0  0  0  0  0  0  0  0  0  0
   -7.0836   -2.3561   -1.0501 O   0  0  0  0  0  0  0  0  0  0  0  0
   -5.2738   -3.6996   -1.8287 C   0  0  0  0  0  0  0  0  0  0  0  0
   -4.3594   -3.0694   -0.8355 C   0  0  0  0  0  0  0  0  0  0  0  0
   -3.0722   -3.9177   -0.8810 C   0  0  0  0  0  0  0  0  0  0  0  0
   -1.9905   -3.4073   -0.0061 C   0  0  0  0  0  0  0  0  0  0  0  0
   -0.7786   -4.3388   -0.1505 C   0  0  0  0  0  0  0  0  0  0  0  0
   -1.0350   -5.6800    0.2585 N   0  0  0  0  0  0  0  0  0  0  0  0
   -1.5109   -6.8276   -0.4263 C   0  0  0  0  0  0  0  0  0  0  0  0
   -1.8212   -6.8527   -1.6252 O   0  0  0  0  0  0  0  0  0  0  0  0
   -1.5688   -7.9544    0.5135 C   0  0  0  0  0  0  0  0  0  0  0  0
   -1.1519   -7.5270    1.7118 C   0  0  0  0  0  0  0  0  0  0  0  0
   -0.8102   -6.1356    1.6134 C   0  0  0  0  0  0  0  0  0  0  0  0
   -0.3782   -5.4106    2.5524 O   0  0  0  0  0  0  0  0  0  0  0  0
    6.4765    0.6187    6.7581 H   0  0  0  0  0  0  0  0  0  0  0  0
    5.6738    1.3740    8.1603 H   0  0  0  0  0  0  0  0  0  0  0  0
    4.8445    0.0021    7.3826 H   0  0  0  0  0  0  0  0  0  0  0  0
    3.6740    1.4580    6.1302 H   0  0  0  0  0  0  0  0  0  0  0  0
    4.6812    2.7964    6.7412 H   0  0  0  0  0  0  0  0  0  0  0  0
    5.5881    0.8157    4.6328 H   0  0  0  0  0  0  0  0  0  0  0  0
    6.8728    3.3745    4.5302 H   0  0  0  0  0  0  0  0  0  0  0  0
    6.7578    2.8506    6.1948 H   0  0  0  0  0  0  0  0  0  0  0  0
    7.5590    1.7473    5.0970 H   0  0  0  0  0  0  0  0  0  0  0  0
    4.5535    3.6469    4.0693 H   0  0  0  0  0  0  0  0  0  0  0  0
    6.1951    3.1935    2.6986 H   0  0  0  0  0  0  0  0  0  0  0  0
    4.7227    0.7455    1.4704 H   0  0  0  0  0  0  0  0  0  0  0  0
    6.3317    0.8472    2.1624 H   0  0  0  0  0  0  0  0  0  0  0  0
    8.5028    3.0035   -1.3409 H   0  0  0  0  0  0  0  0  0  0  0  0
    6.9392    2.5342   -2.0487 H   0  0  0  0  0  0  0  0  0  0  0  0
    9.1667    1.2999   -2.9435 H   0  0  0  0  0  0  0  0  0  0  0  0
    7.7798    0.2205   -2.4077 H   0  0  0  0  0  0  0  0  0  0  0  0
    9.5443   -0.5833   -1.1345 H   0  0  0  0  0  0  0  0  0  0  0  0
   10.2875    1.0727   -0.9477 H   0  0  0  0  0  0  0  0  0  0  0  0
    8.1778   -0.1822    0.7004 H   0  0  0  0  0  0  0  0  0  0  0  0
    8.6558    1.8013    2.1537 H   0  0  0  0  0  0  0  0  0  0  0  0
   11.3081    0.7151    0.9463 H   0  0  0  0  0  0  0  0  0  0  0  0
   12.0425    1.0942    3.2299 H   0  0  0  0  0  0  0  0  0  0  0  0
   11.6346    2.5701    2.2816 H   0  0  0  0  0  0  0  0  0  0  0  0
   10.4761    2.0544    3.5382 H   0  0  0  0  0  0  0  0  0  0  0  0
    9.8560   -1.7980    0.7471 H   0  0  0  0  0  0  0  0  0  0  0  0
   10.4949   -2.8226    3.4879 H   0  0  0  0  0  0  0  0  0  0  0  0
   10.8834   -5.0103    2.1634 H   0  0  0  0  0  0  0  0  0  0  0  0
   12.1731   -3.7902    2.1315 H   0  0  0  0  0  0  0  0  0  0  0  0
   11.0063   -3.9604    0.7134 H   0  0  0  0  0  0  0  0  0  0  0  0
    8.1990   -3.0346    3.3446 H   0  0  0  0  0  0  0  0  0  0  0  0
    6.7009   -2.3011    1.8582 H   0  0  0  0  0  0  0  0  0  0  0  0
    5.3440   -2.4639   -0.1323 H   0  0  0  0  0  0  0  0  0  0  0  0
    5.8976   -4.2079   -1.8149 H   0  0  0  0  0  0  0  0  0  0  0  0
    7.8610   -5.7503   -1.4328 H   0  0  0  0  0  0  0  0  0  0  0  0
    9.1531   -5.4896    0.5899 H   0  0  0  0  0  0  0  0  0  0  0  0
    9.8121   -4.8022    3.8446 H   0  0  0  0  0  0  0  0  0  0  0  0
    8.1293    3.7490    1.3764 H   0  0  0  0  0  0  0  0  0  0  0  0
    9.6646    3.9856    2.3840 H   0  0  0  0  0  0  0  0  0  0  0  0
    9.4811    4.7011    0.7610 H   0  0  0  0  0  0  0  0  0  0  0  0
    6.0390    4.8556    1.1317 H   0  0  0  0  0  0  0  0  0  0  0  0
    5.0807    5.3765    2.5999 H   0  0  0  0  0  0  0  0  0  0  0  0
    4.3732    5.4139    0.9907 H   0  0  0  0  0  0  0  0  0  0  0  0
    1.9172    3.6542    2.9052 H   0  0  0  0  0  0  0  0  0  0  0  0
    2.8295    4.1464    4.3437 H   0  0  0  0  0  0  0  0  0  0  0  0
    1.3899    3.0679    4.5162 H   0  0  0  0  0  0  0  0  0  0  0  0
    1.5689   -0.7157    2.7565 H   0  0  0  0  0  0  0  0  0  0  0  0
   -0.1085   -0.9021    4.3132 H   0  0  0  0  0  0  0  0  0  0  0  0
    1.4237    1.1068    6.1630 H   0  0  0  0  0  0  0  0  0  0  0  0
   -0.1111    1.3696    5.3464 H   0  0  0  0  0  0  0  0  0  0  0  0
   -0.0456    0.1040    6.5666 H   0  0  0  0  0  0  0  0  0  0  0  0
    1.8078   -2.2637    4.3322 H   0  0  0  0  0  0  0  0  0  0  0  0
    1.0969   -2.1192    5.9358 H   0  0  0  0  0  0  0  0  0  0  0  0
    2.6672   -1.2166    5.5492 H   0  0  0  0  0  0  0  0  0  0  0  0
    0.3491    2.0479    2.7531 H   0  0  0  0  0  0  0  0  0  0  0  0
   -1.8063    0.1903    0.3185 H   0  0  0  0  0  0  0  0  0  0  0  0
   -3.0067   -0.3329    2.2907 H   0  0  0  0  0  0  0  0  0  0  0  0
   -3.3549    0.8879    4.1987 H   0  0  0  0  0  0  0  0  0  0  0  0
   -1.8165    1.6101    3.7487 H   0  0  0  0  0  0  0  0  0  0  0  0
   -3.4314    2.4099    3.2969 H   0  0  0  0  0  0  0  0  0  0  0  0
   -4.1436    2.2257    1.0586 H   0  0  0  0  0  0  0  0  0  0  0  0
   -4.1841    0.5068    0.3575 H   0  0  0  0  0  0  0  0  0  0  0  0
   -5.0528    0.9390    1.8461 H   0  0  0  0  0  0  0  0  0  0  0  0
   -1.4948    3.4884    2.3631 H   0  0  0  0  0  0  0  0  0  0  0  0
   -1.7581    4.2463    0.7258 H   0  0  0  0  0  0  0  0  0  0  0  0
   -0.1476    3.7685    1.2286 H   0  0  0  0  0  0  0  0  0  0  0  0
   -1.3116    4.5436   -3.1998 H   0  0  0  0  0  0  0  0  0  0  0  0
   -0.6056    2.9149   -3.3594 H   0  0  0  0  0  0  0  0  0  0  0  0
   -2.2583    1.0539   -4.0015 H   0  0  0  0  0  0  0  0  0  0  0  0
   -4.4897    0.4490   -4.6280 H   0  0  0  0  0  0  0  0  0  0  0  0
   -5.8670    4.3547   -3.5877 H   0  0  0  0  0  0  0  0  0  0  0  0
   -3.6523    4.9445   -2.9594 H   0  0  0  0  0  0  0  0  0  0  0  0
   -7.4441    2.8205   -4.3146 H   0  0  0  0  0  0  0  0  0  0  0  0
   -9.2194    1.1298   -3.9900 H   0  0  0  0  0  0  0  0  0  0  0  0
   -8.8049    2.5209   -6.1035 H   0  0  0  0  0  0  0  0  0  0  0  0
   -8.7244    1.0634   -7.0718 H   0  0  0  0  0  0  0  0  0  0  0  0
  -11.0724    2.3671   -5.5870 H   0  0  0  0  0  0  0  0  0  0  0  0
  -10.7794    2.4347   -7.3133 H   0  0  0  0  0  0  0  0  0  0  0  0
  -12.6647    1.1171   -6.8684 H   0  0  0  0  0  0  0  0  0  0  0  0
  -11.4323    0.0050   -7.4888 H   0  0  0  0  0  0  0  0  0  0  0  0
  -11.5669   -0.1442   -4.5099 H   0  0  0  0  0  0  0  0  0  0  0  0
  -13.5951   -1.8164   -3.7004 H   0  0  0  0  0  0  0  0  0  0  0  0
  -13.8846   -3.0198   -4.9633 H   0  0  0  0  0  0  0  0  0  0  0  0
   -9.5898   -1.1625   -5.7198 H   0  0  0  0  0  0  0  0  0  0  0  0
   -9.2278   -2.8562   -2.6459 H   0  0  0  0  0  0  0  0  0  0  0  0
   -9.1170   -4.7671   -4.2215 H   0  0  0  0  0  0  0  0  0  0  0  0
  -10.7819   -3.2869   -6.0394 H   0  0  0  0  0  0  0  0  0  0  0  0
  -11.1894   -4.2497   -4.6057 H   0  0  0  0  0  0  0  0  0  0  0  0
  -10.9050   -2.5432   -4.3319 H   0  0  0  0  0  0  0  0  0  0  0  0
   -8.9263   -3.2961   -6.7089 H   0  0  0  0  0  0  0  0  0  0  0  0
   -7.3510   -3.2852   -5.7827 H   0  0  0  0  0  0  0  0  0  0  0  0
   -8.2092   -4.8408   -6.2693 H   0  0  0  0  0  0  0  0  0  0  0  0
   -6.7755   -3.9210   -3.8836 H   0  0  0  0  0  0  0  0  0  0  0  0
   -4.7276   -3.7908   -2.7853 H   0  0  0  0  0  0  0  0  0  0  0  0
   -5.4597   -4.7533   -1.5052 H   0  0  0  0  0  0  0  0  0  0  0  0
   -4.0038   -2.0601   -1.2132 H   0  0  0  0  0  0  0  0  0  0  0  0
   -4.7369   -2.9563    0.1791 H   0  0  0  0  0  0  0  0  0  0  0  0
   -3.3822   -4.9263   -0.5130 H   0  0  0  0  0  0  0  0  0  0  0  0
   -2.7350   -3.9759   -1.9151 H   0  0  0  0  0  0  0  0  0  0  0  0
   -2.2296   -3.2146    1.0335 H   0  0  0  0  0  0  0  0  0  0  0  0
   -1.6366   -2.4288   -0.4262 H   0  0  0  0  0  0  0  0  0  0  0  0
   -0.4868   -4.3959   -1.2416 H   0  0  0  0  0  0  0  0  0  0  0  0
    0.1179   -3.9264    0.3479 H   0  0  0  0  0  0  0  0  0  0  0  0
   -1.8814   -8.9755    0.3408 H   0  0  0  0  0  0  0  0  0  0  0  0
   -1.0659   -8.1089    2.6361 H   0  0  0  0  0  0  0  0  0  0  0  0
  1  2  1  0
  2  3  1  0
  3  4  1  0
  3  5  1  0
  5  6  1  0
  6  7  1  0
  7  8  1  0
  8  9  2  0
  8 10  1  0
 10 11  1  0
 11 12  1  0
 12 13  1  0
 13 14  1  0
 14 15  1  0
 15 16  1  0
 16 17  1  0
 16 18  1  0
 18 19  2  0
 18 20  1  0
 20 21  1  0
 21 22  1  0
 21 23  1  0
 23 24  1  0
 24 25  2  0
 25 26  1  0
 26 27  2  0
 27 28  1  0
 28 29  2  0
 23 30  1  0
 15 31  1  0
 31 32  1  0
  6 33  1  0
 33 34  1  0
  5 35  1  0
 35 36  1  0
 35 37  1  0
 37 38  2  0
 37 39  1  0
 39 40  1  0
 40 41  1  0
 40 42  1  0
 39 43  1  0
 43 44  1  0
 44 45  2  0
 44 46  1  0
 46 47  1  0
 47 48  1  0
 47 49  1  0
 46 50  1  0
 50 51  1  0
 50 52  1  0
 52 53  2  0
 52 54  1  0
 54 55  1  0
 55 56  1  0
 56 57  1  0
 57 58  2  0
 58 59  1  0
 59 60  2  0
 60 61  1  0
 59 62  1  0
 62 63  1  0
 63 64  2  0
 63 65  1  0
 65 66  1  0
 66 67  1  0
 67 68  1  0
 68 69  1  0
 69 70  1  0
 70 71  2  0
 70 72  1  0
 65 73  1  0
 73 74  1  0
 74 75  2  0
 74 76  1  0
 76 77  1  0
 77 78  1  0
 77 79  1  0
 76 80  1  0
 80 81  1  0
 81 82  2  0
 81 83  1  0
 83 84  1  0
 84 85  1  0
 85 86  1  0
 86 87  1  0
 87 88  1  0
 88 89  1  0
 89 90  2  0
 89 91  1  0
 91 92  2  0
 92 93  1  0
 93 94  2  0
 14 10  1  0
 29 24  1  0
 61 56  2  0
 93 88  1  0
  1 95  1  0
  1 96  1  0
  1 97  1  0
  2 98  1  0
  2 99  1  0
  3100  1  6
  4101  1  0
  4102  1  0
  4103  1  0
  5104  1  1
  6105  1  1
  7106  1  0
  7107  1  0
 11108  1  0
 11109  1  0
 12110  1  0
 12111  1  0
 13112  1  0
 13113  1  0
 14114  1  1
 15115  1  1
 16116  1  6
 17117  1  0
 17118  1  0
 17119  1  0
 20120  1  0
 21121  1  1
 22122  1  0
 22123  1  0
 22124  1  0
 23125  1  1
 25126  1  0
 26127  1  0
 27128  1  0
 28129  1  0
 29130  1  0
 30131  1  0
 32132  1  0
 32133  1  0
 32134  1  0
 34135  1  0
 34136  1  0
 34137  1  0
 36138  1  0
 36139  1  0
 36140  1  0
 39141  1  6
 40142  1  0
 41143  1  0
 41144  1  0
 41145  1  0
 42146  1  0
 42147  1  0
 42148  1  0
 43149  1  0
 46150  1  6
 47151  1  0
 48152  1  0
 48153  1  0
 48154  1  0
 49155  1  0
 49156  1  0
 49157  1  0
 51158  1  0
 51159  1  0
 51160  1  0
 55161  1  0
 55162  1  0
 57163  1  0
 58164  1  0
 60165  1  0
 61166  1  0
 62167  1  0
 65168  1  1
 66169  1  0
 66170  1  0
 67171  1  0
 67172  1  0
 68173  1  0
 68174  1  0
 69175  1  0
 72176  1  0
 72177  1  0
 73178  1  0
 76179  1  1
 77180  1  0
 78181  1  0
 78182  1  0
 78183  1  0
 79184  1  0
 79185  1  0
 79186  1  0
 80187  1  0
 83188  1  0
 83189  1  0
 84190  1  0
 84191  1  0
 85192  1  0
 85193  1  0
 86194  1  0
 86195  1  0
 87196  1  0
 87197  1  0
 91198  1  0
 92199  1  0
M  END
$$$$

     RDKit          3D

199202  0  0  0  0  0  0  0  0999 V2000
   -1.6545   -4.9013   -0.3069 C   0  0  0  0  0  0  0  0  0  0  0  0
   -1.3264   -3.5826    0.3574 C   0  0  0  0  0  0  0  0  0  0  0  0
   -1.7853   -2.3788   -0.4469 C   0  0  2  0  0  0  0  0  0  0  0  0
   -3.2735   -2.5297   -0.6092 C   0  0  0  0  0  0  0  0  0  0  0  0
   -0.9741   -2.1869   -1.6306 C   0  0  1  0  0  0  0  0  0  0  0  0
   -1.3141   -1.0481   -2.5809 C   0  0  1  0  0  0  0  0  0  0  0  0
   -0.8093   -1.6119   -3.9676 C   0  0  0  0  0  0  0  0  0  0  0  0
   -0.9641   -0.6829   -5.0421 C   0  0  0  0  0  0  0  0  0  0  0  0
   -0.9337    0.5815   -4.7348 O   0  0  0  0  0  0  0  0  0  0  0  0
   -1.1577   -0.9162   -6.4270 N   0  0  0  0  0  0  0  0  0  0  0  0
   -1.2176    0.3275   -7.2911 C   0  0  0  0  0  0  0  0  0  0  0  0
   -0.9507   -0.1448   -8.6892 C   0  0  0  0  0  0  0  0  0  0  0  0
   -1.5341   -1.5391   -8.7142 C   0  0  0  0  0  0  0  0  0  0  0  0
   -1.3743   -1.9973   -7.2718 C   0  0  1  0  0  0  0  0  0  0  0  0
   -0.5042   -3.2198   -7.3370 C   0  0  1  0  0  0  0  0  0  0  0  0
    0.8986   -3.0308   -7.7592 C   0  0  1  0  0  0  0  0  0  0  0  0
    1.7941   -2.2192   -6.9146 C   0  0  0  0  0  0  0  0  0  0  0  0
    1.5139   -4.2768   -8.2082 C   0  0  0  0  0  0  0  0  0  0  0  0
    0.8331   -5.3073   -8.5245 O   0  0  0  0  0  0  0  0  0  0  0  0
    2.9402   -4.4694   -8.3374 N   0  0  0  0  0  0  0  0  0  0  0  0
    3.4472   -5.7722   -8.8273 C   0  0  2  0  0  0  0  0  0  0  0  0
    3.9282   -6.4823   -7.5542 C   0  0  0  0  0  0  0  0  0  0  0  0
    4.5952   -5.5886   -9.7501 C   0  0  1  0  0  0  0  0  0  0  0  0
    5.0909   -6.9118  -10.2079 C   0  0  0  0  0  0  0  0  0  0  0  0
    4.5007   -7.4417  -11.3450 C   0  0  0  0  0  0  0  0  0  0  0  0
    4.8568   -8.6513  -11.8914 C   0  0  0  0  0  0  0  0  0  0  0  0
    5.8680   -9.3608  -11.2417 C   0  0  0  0  0  0  0  0  0  0  0  0
    6.4718   -8.8384  -10.0958 C   0  0  0  0  0  0  0  0  0  0  0  0
    6.0822   -7.6354   -9.6004 C   0  0  0  0  0  0  0  0  0  0  0  0
    4.2779   -4.7863  -10.8553 O   0  0  0  0  0  0  0  0  0  0  0  0
   -0.4775   -3.8810   -6.1129 O   0  0  0  0  0  0  0  0  0  0  0  0
   -1.1095   -5.0609   -5.9849 C   0  0  0  0  0  0  0  0  0  0  0  0
   -2.6706   -1.0081   -2.7244 O   0  0  0  0  0  0  0  0  0  0  0  0
   -3.3390    0.1662   -2.7404 C   0  0  0  0  0  0  0  0  0  0  0  0
    0.4421   -2.2327   -1.3725 N   0  0  0  0  0  0  0  0  0  0  0  0
    1.2067   -3.3798   -1.9347 C   0  0  0  0  0  0  0  0  0  0  0  0
    1.2068   -1.3159   -0.6210 C   0  0  0  0  0  0  0  0  0  0  0  0
    2.4972   -1.5197   -0.6728 O   0  0  0  0  0  0  0  0  0  0  0  0
    0.8097   -0.1903    0.1877 C   0  0  1  0  0  0  0  0  0  0  0  0
    1.0207   -0.4124    1.7061 C   0  0  0  0  0  0  0  0  0  0  0  0
    0.3169   -1.5164    2.3510 C   0  0  0  0  0  0  0  0  0  0  0  0
    0.7117    0.8690    2.4793 C   0  0  0  0  0  0  0  0  0  0  0  0
    1.9170    0.8280   -0.0311 N   0  0  0  0  0  0  0  0  0  0  0  0
    1.5990    2.2019   -0.0525 C   0  0  0  0  0  0  0  0  0  0  0  0
    0.4117    2.6496    0.0729 O   0  0  0  0  0  0  0  0  0  0  0  0
    2.6712    3.2692   -0.2105 C   0  0  1  0  0  0  0  0  0  0  0  0
    2.4715    3.9431   -1.5116 C   0  0  0  0  0  0  0  0  0  0  0  0
    2.6071    2.9980   -2.6889 C   0  0  0  0  0  0  0  0  0  0  0  0
    3.3952    5.1140   -1.7413 C   0  0  0  0  0  0  0  0  0  0  0  0
    2.3695    4.1838    0.8936 N   0  0  0  0  0  0  0  0  0  0  0  0
    1.1726    4.9716    0.9889 C   0  0  0  0  0  0  0  0  0  0  0  0
    3.3709    4.2383    1.9357 C   0  0  0  0  0  0  0  0  0  0  0  0
    3.1276    4.9611    2.9254 O   0  0  0  0  0  0  0  0  0  0  0  0
    4.5454    3.4811    1.8008 O   0  0  0  0  0  0  0  0  0  0  0  0
    5.5267    3.4378    2.8853 C   0  0  0  0  0  0  0  0  0  0  0  0
    4.7227    2.8036    4.0262 C   0  0  0  0  0  0  0  0  0  0  0  0
    4.1964    3.5401    5.0389 C   0  0  0  0  0  0  0  0  0  0  0  0
    3.2977    2.9037    5.9068 C   0  0  0  0  0  0  0  0  0  0  0  0
    2.9959    1.5872    5.6949 C   0  0  0  0  0  0  0  0  0  0  0  0
    3.5537    0.8354    4.6491 C   0  0  0  0  0  0  0  0  0  0  0  0
    4.4334    1.4608    3.8020 C   0  0  0  0  0  0  0  0  0  0  0  0
    1.9293    0.8936    6.3839 N   0  0  0  0  0  0  0  0  0  0  0  0
    0.8814    1.6858    6.9090 C   0  0  0  0  0  0  0  0  0  0  0  0
    0.8486    2.9585    6.8347 O   0  0  0  0  0  0  0  0  0  0  0  0
   -0.3270    1.1100    7.6044 C   0  0  1  0  0  0  0  0  0  0  0  0
   -0.0634   -0.0022    8.5411 C   0  0  0  0  0  0  0  0  0  0  0  0
   -1.4022   -0.4205    9.1454 C   0  0  0  0  0  0  0  0  0  0  0  0
   -1.3317   -1.5563   10.0904 C   0  0  0  0  0  0  0  0  0  0  0  0
   -0.4662   -1.2732   11.2022 N   0  0  0  0  0  0  0  0  0  0  0  0
   -0.6412   -0.2090   12.1204 C   0  0  0  0  0  0  0  0  0  0  0  0
   -1.6068    0.5667   11.9853 O   0  0  0  0  0  0  0  0  0  0  0  0
    0.2458    0.0095   13.1992 N   0  0  0  0  0  0  0  0  0  0  0  0
   -1.1854    2.1619    8.0790 N   0  0  0  0  0  0  0  0  0  0  0  0
   -1.8846    2.9606    7.1499 C   0  0  0  0  0  0  0  0  0  0  0  0
   -1.6688    2.6991    5.9154 O   0  0  0  0  0  0  0  0  0  0  0  0
   -2.8202    4.0488    7.4508 C   0  0  1  0  0  0  0  0  0  0  0  0
   -2.6954    4.6912    8.7809 C   0  0  0  0  0  0  0  0  0  0  0  0
   -1.3296    5.3031    9.0313 C   0  0  0  0  0  0  0  0  0  0  0  0
   -3.1096    3.8858    9.9647 C   0  0  0  0  0  0  0  0  0  0  0  0
   -3.0525    4.9581    6.3759 N   0  0  0  0  0  0  0  0  0  0  0  0
   -3.7498    4.7375    5.1668 C   0  0  0  0  0  0  0  0  0  0  0  0
   -4.2299    3.5874    4.9507 O   0  0  0  0  0  0  0  0  0  0  0  0
   -3.8651    5.8812    4.2441 C   0  0  0  0  0  0  0  0  0  0  0  0
   -4.2815    5.6504    2.8640 C   0  0  0  0  0  0  0  0  0  0  0  0
   -5.6030    4.9931    2.7198 C   0  0  0  0  0  0  0  0  0  0  0  0
   -6.0060    4.8688    1.2536 C   0  0  0  0  0  0  0  0  0  0  0  0
   -5.0048    4.1251    0.4264 C   0  0  0  0  0  0  0  0  0  0  0  0
   -5.5206    4.1022   -0.9376 N   0  0  0  0  0  0  0  0  0  0  0  0
   -6.3173    3.1319   -1.5900 C   0  0  0  0  0  0  0  0  0  0  0  0
   -6.7217    2.0561   -1.0707 O   0  0  0  0  0  0  0  0  0  0  0  0
   -6.5563    3.6332   -2.9548 C   0  0  0  0  0  0  0  0  0  0  0  0
   -5.9784    4.7845   -3.1410 C   0  0  0  0  0  0  0  0  0  0  0  0
   -5.3067    5.1324   -1.8950 C   0  0  0  0  0  0  0  0  0  0  0  0
   -4.6338    6.1813   -1.6796 O   0  0  0  0  0  0  0  0  0  0  0  0
   -0.8316   -5.6349   -0.2426 H   0  0  0  0  0  0  0  0  0  0  0  0
   -1.8296   -4.6902   -1.3765 H   0  0  0  0  0  0  0  0  0  0  0  0
   -2.6255   -5.2450    0.0865 H   0  0  0  0  0  0  0  0  0  0  0  0
   -1.6569   -3.6325    1.3778 H   0  0  0  0  0  0  0  0  0  0  0  0
   -0.1911   -3.5610    0.3676 H   0  0  0  0  0  0  0  0  0  0  0  0
   -1.6845   -1.5017    0.2512 H   0  0  0  0  0  0  0  0  0  0  0  0
   -3.8650   -1.6133   -0.5404 H   0  0  0  0  0  0  0  0  0  0  0  0
   -3.4213   -2.9131   -1.6643 H   0  0  0  0  0  0  0  0  0  0  0  0
   -3.7194   -3.3241    0.0074 H   0  0  0  0  0  0  0  0  0  0  0  0
   -1.2117   -3.0902   -2.3066 H   0  0  0  0  0  0  0  0  0  0  0  0
   -0.8393   -0.1294   -2.4787 H   0  0  0  0  0  0  0  0  0  0  0  0
   -1.5371   -2.4582   -4.1885 H   0  0  0  0  0  0  0  0  0  0  0  0
    0.1668   -2.0952   -3.8397 H   0  0  0  0  0  0  0  0  0  0  0  0
   -0.5681    1.1032   -6.9120 H   0  0  0  0  0  0  0  0  0  0  0  0
   -2.2618    0.7050   -7.2801 H   0  0  0  0  0  0  0  0  0  0  0  0
   -1.5023    0.4388   -9.4468 H   0  0  0  0  0  0  0  0  0  0  0  0
    0.1049   -0.0963   -8.9985 H   0  0  0  0  0  0  0  0  0  0  0  0
   -2.5955   -1.5153   -9.0502 H   0  0  0  0  0  0  0  0  0  0  0  0
   -0.9977   -2.1562   -9.4447 H   0  0  0  0  0  0  0  0  0  0  0  0
   -2.4221   -2.4644   -7.0683 H   0  0  0  0  0  0  0  0  0  0  0  0
   -1.0175   -3.8807   -8.0563 H   0  0  0  0  0  0  0  0  0  0  0  0
    0.8885   -2.4111   -8.7632 H   0  0  0  0  0  0  0  0  0  0  0  0
    2.1577   -2.7920   -6.0497 H   0  0  0  0  0  0  0  0  0  0  0  0
    1.3700   -1.2268   -6.6352 H   0  0  0  0  0  0  0  0  0  0  0  0
    2.7462   -1.9208   -7.4586 H   0  0  0  0  0  0  0  0  0  0  0  0
    3.5886   -3.6916   -8.0835 H   0  0  0  0  0  0  0  0  0  0  0  0
    2.6122   -6.3741   -9.1796 H   0  0  0  0  0  0  0  0  0  0  0  0
    4.5289   -5.8329   -6.9084 H   0  0  0  0  0  0  0  0  0  0  0  0
    3.0032   -6.7341   -6.9466 H   0  0  0  0  0  0  0  0  0  0  0  0
    4.3925   -7.4638   -7.7715 H   0  0  0  0  0  0  0  0  0  0  0  0
    5.4608   -5.0859   -9.2701 H   0  0  0  0  0  0  0  0  0  0  0  0
    3.7090   -6.9003  -11.8577 H   0  0  0  0  0  0  0  0  0  0  0  0
    4.4147   -9.0779  -12.7772 H   0  0  0  0  0  0  0  0  0  0  0  0
    6.1815  -10.3122  -11.6426 H   0  0  0  0  0  0  0  0  0  0  0  0
    7.2580   -9.3632   -9.5617 H   0  0  0  0  0  0  0  0  0  0  0  0
    6.5546   -7.2420   -8.7346 H   0  0  0  0  0  0  0  0  0  0  0  0
    3.4877   -4.2320  -10.6360 H   0  0  0  0  0  0  0  0  0  0  0  0
   -2.1922   -4.9382   -6.2223 H   0  0  0  0  0  0  0  0  0  0  0  0
   -1.1116   -5.3526   -4.8805 H   0  0  0  0  0  0  0  0  0  0  0  0
   -0.6627   -5.9385   -6.4680 H   0  0  0  0  0  0  0  0  0  0  0  0
   -3.2092    0.8121   -1.8179 H   0  0  0  0  0  0  0  0  0  0  0  0
   -4.4449   -0.1464   -2.5853 H   0  0  0  0  0  0  0  0  0  0  0  0
   -3.3956    0.7350   -3.6699 H   0  0  0  0  0  0  0  0  0  0  0  0
    0.4978   -3.9930   -2.5101 H   0  0  0  0  0  0  0  0  0  0  0  0
    1.9889   -3.0227   -2.6205 H   0  0  0  0  0  0  0  0  0  0  0  0
    1.6344   -4.0065   -1.1175 H   0  0  0  0  0  0  0  0  0  0  0  0
   -0.0958    0.3334    0.0609 H   0  0  0  0  0  0  0  0  0  0  0  0
    2.1360   -0.5657    1.8706 H   0  0  0  0  0  0  0  0  0  0  0  0
    0.5442   -1.3981    3.4796 H   0  0  0  0  0  0  0  0  0  0  0  0
    0.7669   -2.5292    2.1673 H   0  0  0  0  0  0  0  0  0  0  0  0
   -0.7771   -1.4965    2.3409 H   0  0  0  0  0  0  0  0  0  0  0  0
   -0.3240    1.1583    2.2211 H   0  0  0  0  0  0  0  0  0  0  0  0
    0.6726    0.6523    3.5758 H   0  0  0  0  0  0  0  0  0  0  0  0
    1.4770    1.6347    2.3496 H   0  0  0  0  0  0  0  0  0  0  0  0
    2.8917    0.5043   -0.1574 H   0  0  0  0  0  0  0  0  0  0  0  0
    3.6559    2.7954   -0.0792 H   0  0  0  0  0  0  0  0  0  0  0  0
    1.3950    4.3264   -1.6133 H   0  0  0  0  0  0  0  0  0  0  0  0
    2.0579    2.0587   -2.5699 H   0  0  0  0  0  0  0  0  0  0  0  0
    3.7054    2.8785   -2.8556 H   0  0  0  0  0  0  0  0  0  0  0  0
    2.2259    3.4746   -3.6268 H   0  0  0  0  0  0  0  0  0  0  0  0
    3.3223    5.4365   -2.7902 H   0  0  0  0  0  0  0  0  0  0  0  0
    2.9382    5.9607   -1.1505 H   0  0  0  0  0  0  0  0  0  0  0  0
    4.3946    4.9880   -1.3365 H   0  0  0  0  0  0  0  0  0  0  0  0
    0.5047    4.4637    1.7358 H   0  0  0  0  0  0  0  0  0  0  0  0
    1.4658    5.9730    1.3643 H   0  0  0  0  0  0  0  0  0  0  0  0
    0.6304    5.1190    0.0475 H   0  0  0  0  0  0  0  0  0  0  0  0
    5.6862    4.4831    3.1765 H   0  0  0  0  0  0  0  0  0  0  0  0
    6.3993    2.8728    2.6372 H   0  0  0  0  0  0  0  0  0  0  0  0
    4.4535    4.5680    5.1990 H   0  0  0  0  0  0  0  0  0  0  0  0
    2.9265    3.5071    6.6972 H   0  0  0  0  0  0  0  0  0  0  0  0
    3.2958   -0.2101    4.5204 H   0  0  0  0  0  0  0  0  0  0  0  0
    4.8700    0.8964    2.9841 H   0  0  0  0  0  0  0  0  0  0  0  0
    1.9345   -0.1412    6.4961 H   0  0  0  0  0  0  0  0  0  0  0  0
   -0.9350    0.6643    6.7160 H   0  0  0  0  0  0  0  0  0  0  0  0
    0.5951    0.2737    9.3834 H   0  0  0  0  0  0  0  0  0  0  0  0
    0.2897   -0.8922    7.9681 H   0  0  0  0  0  0  0  0  0  0  0  0
   -1.8336    0.4532    9.6725 H   0  0  0  0  0  0  0  0  0  0  0  0
   -2.1374   -0.6449    8.3276 H   0  0  0  0  0  0  0  0  0  0  0  0
   -2.3911   -1.6879   10.4882 H   0  0  0  0  0  0  0  0  0  0  0  0
   -1.0822   -2.5043    9.5957 H   0  0  0  0  0  0  0  0  0  0  0  0
    0.3581   -1.9009   11.3557 H   0  0  0  0  0  0  0  0  0  0  0  0
    0.4229    0.9521   13.6267 H   0  0  0  0  0  0  0  0  0  0  0  0
    0.7587   -0.7961   13.6004 H   0  0  0  0  0  0  0  0  0  0  0  0
   -1.2529    2.3127    9.0974 H   0  0  0  0  0  0  0  0  0  0  0  0
   -3.8363    3.4589    7.4986 H   0  0  0  0  0  0  0  0  0  0  0  0
   -3.3983    5.6072    8.7855 H   0  0  0  0  0  0  0  0  0  0  0  0
   -1.4138    5.9570    9.9238 H   0  0  0  0  0  0  0  0  0  0  0  0
   -1.0200    5.9579    8.1789 H   0  0  0  0  0  0  0  0  0  0  0  0
   -0.5276    4.5915    9.1940 H   0  0  0  0  0  0  0  0  0  0  0  0
   -3.4450    2.8807    9.6072 H   0  0  0  0  0  0  0  0  0  0  0  0
   -2.2352    3.7452   10.6367 H   0  0  0  0  0  0  0  0  0  0  0  0
   -3.9432    4.3931   10.5008 H   0  0  0  0  0  0  0  0  0  0  0  0
   -2.6533    5.9421    6.5136 H   0  0  0  0  0  0  0  0  0  0  0  0
   -2.8494    6.4013    4.2976 H   0  0  0  0  0  0  0  0  0  0  0  0
   -4.5535    6.6367    4.7228 H   0  0  0  0  0  0  0  0  0  0  0  0
   -4.3681    6.6638    2.3596 H   0  0  0  0  0  0  0  0  0  0  0  0
   -3.5545    5.0302    2.2682 H   0  0  0  0  0  0  0  0  0  0  0  0
   -6.3949    5.5793    3.2224 H   0  0  0  0  0  0  0  0  0  0  0  0
   -5.6329    3.9758    3.1986 H   0  0  0  0  0  0  0  0  0  0  0  0
   -6.3337    5.8217    0.8333 H   0  0  0  0  0  0  0  0  0  0  0  0
   -6.9291    4.2143    1.2650 H   0  0  0  0  0  0  0  0  0  0  0  0
   -4.9671    3.0814    0.7560 H   0  0  0  0  0  0  0  0  0  0  0  0
   -4.0269    4.6291    0.3653 H   0  0  0  0  0  0  0  0  0  0  0  0
   -7.1468    3.0661   -3.6558 H   0  0  0  0  0  0  0  0  0  0  0  0
   -5.9828    5.3936   -4.0109 H   0  0  0  0  0  0  0  0  0  0  0  0
  1  2  1  0
  2  3  1  0
  3  4  1  0
  3  5  1  0
  5  6  1  0
  6  7  1  0
  7  8  1  0
  8  9  2  0
  8 10  1  0
 10 11  1  0
 11 12  1  0
 12 13  1  0
 13 14  1  0
 14 15  1  0
 15 16  1  0
 16 17  1  0
 16 18  1  0
 18 19  2  0
 18 20  1  0
 20 21  1  0
 21 22  1  0
 21 23  1  0
 23 24  1  0
 24 25  2  0
 25 26  1  0
 26 27  2  0
 27 28  1  0
 28 29  2  0
 23 30  1  0
 15 31  1  0
 31 32  1  0
  6 33  1  0
 33 34  1  0
  5 35  1  0
 35 36  1  0
 35 37  1  0
 37 38  2  0
 37 39  1  0
 39 40  1  0
 40 41  1  0
 40 42  1  0
 39 43  1  0
 43 44  1  0
 44 45  2  0
 44 46  1  0
 46 47  1  0
 47 48  1  0
 47 49  1  0
 46 50  1  0
 50 51  1  0
 50 52  1  0
 52 53  2  0
 52 54  1  0
 54 55  1  0
 55 56  1  0
 56 57  1  0
 57 58  2  0
 58 59  1  0
 59 60  2  0
 60 61  1  0
 59 62  1  0
 62 63  1  0
 63 64  2  0
 63 65  1  0
 65 66  1  0
 66 67  1  0
 67 68  1  0
 68 69  1  0
 69 70  1  0
 70 71  2  0
 70 72  1  0
 65 73  1  0
 73 74  1  0
 74 75  2  0
 74 76  1  0
 76 77  1  0
 77 78  1  0
 77 79  1  0
 76 80  1  0
 80 81  1  0
 81 82  2  0
 81 83  1  0
 83 84  1  0
 84 85  1  0
 85 86  1  0
 86 87  1  0
 87 88  1  0
 88 89  1  0
 89 90  2  0
 89 91  1  0
 91 92  2  0
 92 93  1  0
 93 94  2  0
 14 10  1  0
 29 24  1  0
 61 56  2  0
 93 88  1  0
  1 95  1  0
  1 96  1  0
  1 97  1  0
  2 98  1  0
  2 99  1  0
  3100  1  1
  4101  1  0
  4102  1  0
  4103  1  0
  5104  1  6
  6105  1  1
  7106  1  0
  7107  1  0
 11108  1  0
 11109  1  0
 12110  1  0
 12111  1  0
 13112  1  0
 13113  1  0
 14114  1  1
 15115  1  6
 16116  1  6
 17117  1  0
 17118  1  0
 17119  1  0
 20120  1  0
 21121  1  6
 22122  1  0
 22123  1  0
 22124  1  0
 23125  1  1
 25126  1  0
 26127  1  0
 27128  1  0
 28129  1  0
 29130  1  0
 30131  1  0
 32132  1  0
 32133  1  0
 32134  1  0
 34135  1  0
 34136  1  0
 34137  1  0
 36138  1  0
 36139  1  0
 36140  1  0
 39141  1  1
 40142  1  0
 41143  1  0
 41144  1  0
 41145  1  0
 42146  1  0
 42147  1  0
 42148  1  0
 43149  1  0
 46150  1  1
 47151  1  0
 48152  1  0
 48153  1  0
 48154  1  0
 49155  1  0
 49156  1  0
 49157  1  0
 51158  1  0
 51159  1  0
 51160  1  0
 55161  1  0
 55162  1  0
 57163  1  0
 58164  1  0
 60165  1  0
 61166  1  0
 62167  1  0
 65168  1  6
 66169  1  0
 66170  1  0
 67171  1  0
 67172  1  0
 68173  1  0
 68174  1  0
 69175  1  0
 72176  1  0
 72177  1  0
 73178  1  0
 76179  1  1
 77180  1  0
 78181  1  0
 78182  1  0
 78183  1  0
 79184  1  0
 79185  1  0
 79186  1  0
 80187  1  0
 83188  1  0
 83189  1  0
 84190  1  0
 84191  1  0
 85192  1  0
 85193  1  0
 86194  1  0
 86195  1  0
 87196  1  0
 87197  1  0
 91198  1  0
 92199  1  0
M  END
$$$$

     RDKit          3D

199202  0  0  0  0  0  0  0  0999 V2000
   -2.6859   -2.4141   -1.4307 C   0  0  0  0  0  0  0  0  0  0  0  0
   -2.5077   -1.5117   -2.6629 C   0  0  0  0  0  0  0  0  0  0  0  0
   -1.8668   -0.2033   -2.2493 C   0  0  2  0  0  0  0  0  0  0  0  0
   -2.7821    0.4900   -1.2843 C   0  0  0  0  0  0  0  0  0  0  0  0
   -1.1365    0.5436   -3.2454 C   0  0  1  0  0  0  0  0  0  0  0  0
   -1.5829    1.1618   -4.4817 C   0  0  1  0  0  0  0  0  0  0  0  0
   -2.5418    0.5878   -5.4350 C   0  0  0  0  0  0  0  0  0  0  0  0
   -3.9298    0.3671   -5.0757 C   0  0  0  0  0  0  0  0  0  0  0  0
   -4.4484    0.8351   -4.0221 O   0  0  0  0  0  0  0  0  0  0  0  0
   -4.7244   -0.4313   -5.9887 N   0  0  0  0  0  0  0  0  0  0  0  0
   -4.1937   -0.9914   -7.2188 C   0  0  0  0  0  0  0  0  0  0  0  0
   -5.3480   -1.4634   -8.0429 C   0  0  0  0  0  0  0  0  0  0  0  0
   -6.5511   -1.0000   -7.2953 C   0  0  0  0  0  0  0  0  0  0  0  0
   -6.1347   -0.7923   -5.8344 C   0  0  1  0  0  0  0  0  0  0  0  0
   -6.2601   -2.0656   -5.0753 C   0  0  1  0  0  0  0  0  0  0  0  0
   -7.6287   -2.6091   -4.8805 C   0  0  1  0  0  0  0  0  0  0  0  0
   -7.5009   -3.9124   -4.0819 C   0  0  0  0  0  0  0  0  0  0  0  0
   -8.6431   -1.7341   -4.3032 C   0  0  0  0  0  0  0  0  0  0  0  0
   -9.0690   -2.0150   -3.1371 O   0  0  0  0  0  0  0  0  0  0  0  0
   -9.1999   -0.5997   -4.9238 N   0  0  0  0  0  0  0  0  0  0  0  0
  -10.2301    0.2414   -4.2851 C   0  0  2  0  0  0  0  0  0  0  0  0
  -11.4921    0.0667   -5.1408 C   0  0  0  0  0  0  0  0  0  0  0  0
   -9.8206    1.6697   -4.2889 C   0  0  1  0  0  0  0  0  0  0  0  0
  -10.7572    2.6275   -3.7061 C   0  0  0  0  0  0  0  0  0  0  0  0
  -10.3168    3.9602   -3.6213 C   0  0  0  0  0  0  0  0  0  0  0  0
  -11.1038    4.9493   -3.0847 C   0  0  0  0  0  0  0  0  0  0  0  0
  -12.3458    4.6620   -2.6159 C   0  0  0  0  0  0  0  0  0  0  0  0
  -12.8230    3.3490   -2.6811 C   0  0  0  0  0  0  0  0  0  0  0  0
  -12.0144    2.3562   -3.2266 C   0  0  0  0  0  0  0  0  0  0  0  0
   -8.5999    1.8515   -3.5977 O   0  0  0  0  0  0  0  0  0  0  0  0
   -5.5578   -3.0524   -5.8048 O   0  0  0  0  0  0  0  0  0  0  0  0
   -4.4951   -3.5774   -5.1107 C   0  0  0  0  0  0  0  0  0  0  0  0
   -1.9991    2.5181   -4.3084 O   0  0  0  0  0  0  0  0  0  0  0  0
   -1.0989    3.3452   -5.0010 C   0  0  0  0  0  0  0  0  0  0  0  0
   -0.0057    1.3148   -2.6523 N   0  0  0  0  0  0  0  0  0  0  0  0
   -0.4728    2.4250   -1.8069 C   0  0  0  0  0  0  0  0  0  0  0  0
    1.3510    1.1046   -2.7593 C   0  0  0  0  0  0  0  0  0  0  0  0
    2.0356    2.0699   -2.0955 O   0  0  0  0  0  0  0  0  0  0  0  0
    2.2801    0.1785   -3.3569 C   0  0  1  0  0  0  0  0  0  0  0  0
    3.4404   -0.1691   -2.4242 C   0  0  0  0  0  0  0  0  0  0  0  0
    4.3639   -1.0891   -3.2054 C   0  0  0  0  0  0  0  0  0  0  0  0
    4.2245    1.0913   -2.1297 C   0  0  0  0  0  0  0  0  0  0  0  0
    1.6959   -0.9414   -3.9811 N   0  0  0  0  0  0  0  0  0  0  0  0
    1.7074   -2.2034   -3.4112 C   0  0  0  0  0  0  0  0  0  0  0  0
    2.2630   -2.4450   -2.2849 O   0  0  0  0  0  0  0  0  0  0  0  0
    1.0858   -3.4689   -3.9851 C   0  0  1  0  0  0  0  0  0  0  0  0
    0.9584   -3.5939   -5.4069 C   0  0  0  0  0  0  0  0  0  0  0  0
    2.2381   -3.5092   -6.2072 C   0  0  0  0  0  0  0  0  0  0  0  0
   -0.0482   -2.7042   -6.0842 C   0  0  0  0  0  0  0  0  0  0  0  0
    1.6729   -4.6011   -3.2534 N   0  0  0  0  0  0  0  0  0  0  0  0
    2.8434   -5.3017   -3.7671 C   0  0  0  0  0  0  0  0  0  0  0  0
    1.1414   -5.0807   -2.0228 C   0  0  0  0  0  0  0  0  0  0  0  0
    0.1718   -4.3923   -1.5328 O   0  0  0  0  0  0  0  0  0  0  0  0
    1.6277   -6.1921   -1.3824 O   0  0  0  0  0  0  0  0  0  0  0  0
    1.1849   -6.6273   -0.0705 C   0  0  0  0  0  0  0  0  0  0  0  0
    1.6239   -5.5201    0.8698 C   0  0  0  0  0  0  0  0  0  0  0  0
    0.8146   -4.5674    1.3948 C   0  0  0  0  0  0  0  0  0  0  0  0
    1.3976   -3.5183    2.1447 C   0  0  0  0  0  0  0  0  0  0  0  0
    2.7433   -3.4515    2.3427 C   0  0  0  0  0  0  0  0  0  0  0  0
    3.5288   -4.4761    1.7717 C   0  0  0  0  0  0  0  0  0  0  0  0
    3.0190   -5.5041    1.0454 C   0  0  0  0  0  0  0  0  0  0  0  0
    3.4887   -2.4759    3.0197 N   0  0  0  0  0  0  0  0  0  0  0  0
    3.9769   -2.5172    4.3467 C   0  0  0  0  0  0  0  0  0  0  0  0
    3.6650   -3.5522    5.0148 O   0  0  0  0  0  0  0  0  0  0  0  0
    4.7941   -1.4118    4.8259 C   0  0  1  0  0  0  0  0  0  0  0  0
    6.1811   -1.3884    4.1901 C   0  0  0  0  0  0  0  0  0  0  0  0
    7.1943   -2.3822    4.3366 C   0  0  0  0  0  0  0  0  0  0  0  0
    7.1330   -3.7858    3.9544 C   0  0  0  0  0  0  0  0  0  0  0  0
    6.2502   -4.6959    4.5674 N   0  0  0  0  0  0  0  0  0  0  0  0
    6.3241   -4.9921    5.9779 C   0  0  0  0  0  0  0  0  0  0  0  0
    7.1785   -4.4586    6.7281 O   0  0  0  0  0  0  0  0  0  0  0  0
    5.3802   -5.9320    6.5314 N   0  0  0  0  0  0  0  0  0  0  0  0
    4.3121   -0.0661    4.4382 N   0  0  0  0  0  0  0  0  0  0  0  0
    4.9205    0.9923    5.1337 C   0  0  0  0  0  0  0  0  0  0  0  0
    5.8371    0.7196    6.0043 O   0  0  0  0  0  0  0  0  0  0  0  0
    4.6368    2.4380    4.9879 C   0  0  1  0  0  0  0  0  0  0  0  0
    3.7709    2.8818    6.2002 C   0  0  0  0  0  0  0  0  0  0  0  0
    3.4241    4.3393    6.1485 C   0  0  0  0  0  0  0  0  0  0  0  0
    2.5518    2.0432    6.3263 C   0  0  0  0  0  0  0  0  0  0  0  0
    5.9384    3.0705    5.3044 N   0  0  0  0  0  0  0  0  0  0  0  0
    6.2866    4.3599    4.8138 C   0  0  0  0  0  0  0  0  0  0  0  0
    5.5416    5.0868    4.1216 O   0  0  0  0  0  0  0  0  0  0  0  0
    7.6259    4.8657    5.1458 C   0  0  0  0  0  0  0  0  0  0  0  0
    7.8062    6.3500    5.1441 C   0  0  0  0  0  0  0  0  0  0  0  0
    9.2892    6.6147    5.3789 C   0  0  0  0  0  0  0  0  0  0  0  0
    9.6341    8.0758    5.4967 C   0  0  0  0  0  0  0  0  0  0  0  0
   11.1353    8.2659    5.6386 C   0  0  0  0  0  0  0  0  0  0  0  0
   11.7390    7.5814    6.7288 N   0  0  0  0  0  0  0  0  0  0  0  0
   11.9789    7.9351    8.0825 C   0  0  0  0  0  0  0  0  0  0  0  0
   11.6450    9.0483    8.6143 O   0  0  0  0  0  0  0  0  0  0  0  0
   12.6592    6.8285    8.7571 C   0  0  0  0  0  0  0  0  0  0  0  0
   12.8436    5.8283    7.8934 C   0  0  0  0  0  0  0  0  0  0  0  0
   12.2849    6.2488    6.6027 C   0  0  0  0  0  0  0  0  0  0  0  0
   12.2872    5.5414    5.5391 O   0  0  0  0  0  0  0  0  0  0  0  0
   -1.7987   -2.4307   -0.7952 H   0  0  0  0  0  0  0  0  0  0  0  0
   -2.8381   -3.4402   -1.8328 H   0  0  0  0  0  0  0  0  0  0  0  0
   -3.6406   -2.1714   -0.8904 H   0  0  0  0  0  0  0  0  0  0  0  0
   -1.9348   -2.0962   -3.3938 H   0  0  0  0  0  0  0  0  0  0  0  0
   -3.5338   -1.4121   -3.0458 H   0  0  0  0  0  0  0  0  0  0  0  0
   -1.0243   -0.6045   -1.5330 H   0  0  0  0  0  0  0  0  0  0  0  0
   -3.0748    1.4928   -1.5971 H   0  0  0  0  0  0  0  0  0  0  0  0
   -3.7075   -0.1512   -1.0738 H   0  0  0  0  0  0  0  0  0  0  0  0
   -2.3039    0.5486   -0.2992 H   0  0  0  0  0  0  0  0  0  0  0  0
   -0.4671   -0.3375   -3.7104 H   0  0  0  0  0  0  0  0  0  0  0  0
   -0.6326    1.3312   -5.1149 H   0  0  0  0  0  0  0  0  0  0  0  0
   -2.0526   -0.3436   -5.8618 H   0  0  0  0  0  0  0  0  0  0  0  0
   -2.5970    1.2316   -6.3918 H   0  0  0  0  0  0  0  0  0  0  0  0
   -3.4137   -1.7293   -7.0135 H   0  0  0  0  0  0  0  0  0  0  0  0
   -3.6795   -0.2014   -7.8289 H   0  0  0  0  0  0  0  0  0  0  0  0
   -5.2827   -2.5740   -8.1085 H   0  0  0  0  0  0  0  0  0  0  0  0
   -5.3080   -1.0885   -9.0954 H   0  0  0  0  0  0  0  0  0  0  0  0
   -6.8923   -0.0342   -7.7375 H   0  0  0  0  0  0  0  0  0  0  0  0
   -7.3404   -1.7725   -7.3658 H   0  0  0  0  0  0  0  0  0  0  0  0
   -6.6058    0.0907   -5.3863 H   0  0  0  0  0  0  0  0  0  0  0  0
   -5.7108   -2.0063   -4.1009 H   0  0  0  0  0  0  0  0  0  0  0  0
   -8.0524   -2.9585   -5.8740 H   0  0  0  0  0  0  0  0  0  0  0  0
   -7.0451   -4.7240   -4.6537 H   0  0  0  0  0  0  0  0  0  0  0  0
   -8.5566   -4.2490   -3.8533 H   0  0  0  0  0  0  0  0  0  0  0  0
   -7.0603   -3.7018   -3.0906 H   0  0  0  0  0  0  0  0  0  0  0  0
   -8.9149   -0.3014   -5.8738 H   0  0  0  0  0  0  0  0  0  0  0  0
  -10.4384   -0.1262   -3.2654 H   0  0  0  0  0  0  0  0  0  0  0  0
  -11.8185    1.0498   -5.5148 H   0  0  0  0  0  0  0  0  0  0  0  0
  -11.2315   -0.5107   -6.0745 H   0  0  0  0  0  0  0  0  0  0  0  0
  -12.2488   -0.5352   -4.6378 H   0  0  0  0  0  0  0  0  0  0  0  0
   -9.6817    1.9734   -5.3674 H   0  0  0  0  0  0  0  0  0  0  0  0
   -9.3170    4.2266   -3.9922 H   0  0  0  0  0  0  0  0  0  0  0  0
  -10.6889    5.9620   -3.0503 H   0  0  0  0  0  0  0  0  0  0  0  0
  -12.9363    5.4495   -2.2017 H   0  0  0  0  0  0  0  0  0  0  0  0
  -13.8084    3.1600   -2.3022 H   0  0  0  0  0  0  0  0  0  0  0  0
  -12.4022    1.3653   -3.2538 H   0  0  0  0  0  0  0  0  0  0  0  0
   -8.8051    2.0538   -2.6263 H   0  0  0  0  0  0  0  0  0  0  0  0
   -4.8126   -4.0688   -4.1746 H   0  0  0  0  0  0  0  0  0  0  0  0
   -3.6627   -2.8580   -4.9458 H   0  0  0  0  0  0  0  0  0  0  0  0
   -4.0364   -4.3861   -5.7462 H   0  0  0  0  0  0  0  0  0  0  0  0
   -1.3751    4.3959   -4.9077 H   0  0  0  0  0  0  0  0  0  0  0  0
   -0.0925    3.1634   -4.5598 H   0  0  0  0  0  0  0  0  0  0  0  0
   -1.0944    2.9978   -6.0647 H   0  0  0  0  0  0  0  0  0  0  0  0
   -0.5486    2.0842   -0.7411 H   0  0  0  0  0  0  0  0  0  0  0  0
    0.3473    3.1893   -1.7765 H   0  0  0  0  0  0  0  0  0  0  0  0
   -1.3465    2.9602   -2.1838 H   0  0  0  0  0  0  0  0  0  0  0  0
    2.8585    0.7141   -4.1815 H   0  0  0  0  0  0  0  0  0  0  0  0
    3.1407   -0.5311   -1.4451 H   0  0  0  0  0  0  0  0  0  0  0  0
    3.9149   -1.4382   -4.1549 H   0  0  0  0  0  0  0  0  0  0  0  0
    4.8553   -1.8587   -2.5984 H   0  0  0  0  0  0  0  0  0  0  0  0
    5.2540   -0.4757   -3.5983 H   0  0  0  0  0  0  0  0  0  0  0  0
    4.0029    1.5378   -1.1356 H   0  0  0  0  0  0  0  0  0  0  0  0
    4.3256    1.7870   -2.9559 H   0  0  0  0  0  0  0  0  0  0  0  0
    5.2936    0.7040   -1.9733 H   0  0  0  0  0  0  0  0  0  0  0  0
    1.2691   -0.8136   -4.9394 H   0  0  0  0  0  0  0  0  0  0  0  0
    0.0657   -3.3541   -3.4685 H   0  0  0  0  0  0  0  0  0  0  0  0
    0.5409   -4.6597   -5.6181 H   0  0  0  0  0  0  0  0  0  0  0  0
    2.0880   -3.0236   -7.2109 H   0  0  0  0  0  0  0  0  0  0  0  0
    2.5729   -4.5379   -6.4362 H   0  0  0  0  0  0  0  0  0  0  0  0
    3.0620   -2.9957   -5.7292 H   0  0  0  0  0  0  0  0  0  0  0  0
    0.4603   -1.9914   -6.8025 H   0  0  0  0  0  0  0  0  0  0  0  0
   -0.6237   -2.1581   -5.3368 H   0  0  0  0  0  0  0  0  0  0  0  0
   -0.7647   -3.2750   -6.7316 H   0  0  0  0  0  0  0  0  0  0  0  0
    3.6366   -4.6183   -4.1211 H   0  0  0  0  0  0  0  0  0  0  0  0
    2.5650   -6.0344   -4.5501 H   0  0  0  0  0  0  0  0  0  0  0  0
    3.3330   -5.8925   -2.9379 H   0  0  0  0  0  0  0  0  0  0  0  0
    1.7839   -7.5082    0.1723 H   0  0  0  0  0  0  0  0  0  0  0  0
    0.1177   -6.8068   -0.0338 H   0  0  0  0  0  0  0  0  0  0  0  0
   -0.2471   -4.6231    1.2327 H   0  0  0  0  0  0  0  0  0  0  0  0
    0.7827   -2.7509    2.5789 H   0  0  0  0  0  0  0  0  0  0  0  0
    4.6227   -4.4652    1.9095 H   0  0  0  0  0  0  0  0  0  0  0  0
    3.6581   -6.2613    0.6371 H   0  0  0  0  0  0  0  0  0  0  0  0
    3.7080   -1.5896    2.4567 H   0  0  0  0  0  0  0  0  0  0  0  0
    5.0010   -1.4962    5.8990 H   0  0  0  0  0  0  0  0  0  0  0  0
    5.8962   -1.3786    3.0509 H   0  0  0  0  0  0  0  0  0  0  0  0
    6.6514   -0.3588    4.2616 H   0  0  0  0  0  0  0  0  0  0  0  0
    8.1165   -1.9743    3.7346 H   0  0  0  0  0  0  0  0  0  0  0  0
    7.6399   -2.2450    5.3939 H   0  0  0  0  0  0  0  0  0  0  0  0
    6.9620   -3.8085    2.8230 H   0  0  0  0  0  0  0  0  0  0  0  0
    8.1740   -4.2810    4.0081 H   0  0  0  0  0  0  0  0  0  0  0  0
    5.4958   -5.1999    4.0252 H   0  0  0  0  0  0  0  0  0  0  0  0
    4.3996   -5.7952    6.1965 H   0  0  0  0  0  0  0  0  0  0  0  0
    5.6614   -6.6767    7.2020 H   0  0  0  0  0  0  0  0  0  0  0  0
    3.5920    0.1044    3.7262 H   0  0  0  0  0  0  0  0  0  0  0  0
    4.1626    2.8059    4.1130 H   0  0  0  0  0  0  0  0  0  0  0  0
    4.3929    2.7437    7.1375 H   0  0  0  0  0  0  0  0  0  0  0  0
    2.5742    4.4940    6.8921 H   0  0  0  0  0  0  0  0  0  0  0  0
    3.0607    4.6818    5.1809 H   0  0  0  0  0  0  0  0  0  0  0  0
    4.2597    4.9626    6.5277 H   0  0  0  0  0  0  0  0  0  0  0  0
    2.7576    1.0637    6.7858 H   0  0  0  0  0  0  0  0  0  0  0  0
    2.0885    1.9468    5.3198 H   0  0  0  0  0  0  0  0  0  0  0  0
    1.8414    2.5824    7.0061 H   0  0  0  0  0  0  0  0  0  0  0  0
    6.6427    2.5748    5.9010 H   0  0  0  0  0  0  0  0  0  0  0  0
    8.3637    4.4632    4.3818 H   0  0  0  0  0  0  0  0  0  0  0  0
    8.0122    4.4653    6.1149 H   0  0  0  0  0  0  0  0  0  0  0  0
    7.1866    6.7684    5.9681 H   0  0  0  0  0  0  0  0  0  0  0  0
    7.4930    6.7580    4.1675 H   0  0  0  0  0  0  0  0  0  0  0  0
    9.8154    6.2546    4.4447 H   0  0  0  0  0  0  0  0  0  0  0  0
    9.6832    5.9982    6.2038 H   0  0  0  0  0  0  0  0  0  0  0  0
    9.1566    8.5155    6.4234 H   0  0  0  0  0  0  0  0  0  0  0  0
    9.2495    8.6747    4.6532 H   0  0  0  0  0  0  0  0  0  0  0  0
   11.5959    7.9242    4.6716 H   0  0  0  0  0  0  0  0  0  0  0  0
   11.3976    9.3437    5.7215 H   0  0  0  0  0  0  0  0  0  0  0  0
   12.9624    6.8266    9.7870 H   0  0  0  0  0  0  0  0  0  0  0  0
   13.3278    4.8667    8.1015 H   0  0  0  0  0  0  0  0  0  0  0  0
  1  2  1  0
  2  3  1  0
  3  4  1  0
  3  5  1  0
  5  6  1  0
  6  7  1  0
  7  8  1  0
  8  9  2  0
  8 10  1  0
 10 11  1  0
 11 12  1  0
 12 13  1  0
 13 14  1  0
 14 15  1  0
 15 16  1  0
 16 17  1  0
 16 18  1  0
 18 19  2  0
 18 20  1  0
 20 21  1  0
 21 22  1  0
 21 23  1  0
 23 24  1  0
 24 25  2  0
 25 26  1  0
 26 27  2  0
 27 28  1  0
 28 29  2  0
 23 30  1  0
 15 31  1  0
 31 32  1  0
  6 33  1  0
 33 34  1  0
  5 35  1  0
 35 36  1  0
 35 37  1  0
 37 38  2  0
 37 39  1  0
 39 40  1  0
 40 41  1  0
 40 42  1  0
 39 43  1  0
 43 44  1  0
 44 45  2  0
 44 46  1  0
 46 47  1  0
 47 48  1  0
 47 49  1  0
 46 50  1  0
 50 51  1  0
 50 52  1  0
 52 53  2  0
 52 54  1  0
 54 55  1  0
 55 56  1  0
 56 57  1  0
 57 58  2  0
 58 59  1  0
 59 60  2  0
 60 61  1  0
 59 62  1  0
 62 63  1  0
 63 64  2  0
 63 65  1  0
 65 66  1  0
 66 67  1  0
 67 68  1  0
 68 69  1  0
 69 70  1  0
 70 71  2  0
 70 72  1  0
 65 73  1  0
 73 74  1  0
 74 75  2  0
 74 76  1  0
 76 77  1  0
 77 78  1  0
 77 79  1  0
 76 80  1  0
 80 81  1  0
 81 82  2  0
 81 83  1  0
 83 84  1  0
 84 85  1  0
 85 86  1  0
 86 87  1  0
 87 88  1  0
 88 89  1  0
 89 90  2  0
 89 91  1  0
 91 92  2  0
 92 93  1  0
 93 94  2  0
 14 10  1  0
 29 24  1  0
 61 56  2  0
 93 88  1  0
  1 95  1  0
  1 96  1  0
  1 97  1  0
  2 98  1  0
  2 99  1  0
  3100  1  1
  4101  1  0
  4102  1  0
  4103  1  0
  5104  1  6
  6105  1  6
  7106  1  0
  7107  1  0
 11108  1  0
 11109  1  0
 12110  1  0
 12111  1  0
 13112  1  0
 13113  1  0
 14114  1  1
 15115  1  1
 16116  1  6
 17117  1  0
 17118  1  0
 17119  1  0
 20120  1  0
 21121  1  1
 22122  1  0
 22123  1  0
 22124  1  0
 23125  1  6
 25126  1  0
 26127  1  0
 27128  1  0
 28129  1  0
 29130  1  0
 30131  1  0
 32132  1  0
 32133  1  0
 32134  1  0
 34135  1  0
 34136  1  0
 34137  1  0
 36138  1  0
 36139  1  0
 36140  1  0
 39141  1  6
 40142  1  0
 41143  1  0
 41144  1  0
 41145  1  0
 42146  1  0
 42147  1  0
 42148  1  0
 43149  1  0
 46150  1  1
 47151  1  0
 48152  1  0
 48153  1  0
 48154  1  0
 49155  1  0
 49156  1  0
 49157  1  0
 51158  1  0
 51159  1  0
 51160  1  0
 55161  1  0
 55162  1  0
 57163  1  0
 58164  1  0
 60165  1  0
 61166  1  0
 62167  1  0
 65168  1  1
 66169  1  0
 66170  1  0
 67171  1  0
 67172  1  0
 68173  1  0
 68174  1  0
 69175  1  0
 72176  1  0
 72177  1  0
 73178  1  0
 76179  1  6
 77180  1  0
 78181  1  0
 78182  1  0
 78183  1  0
 79184  1  0
 79185  1  0
 79186  1  0
 80187  1  0
 83188  1  0
 83189  1  0
 84190  1  0
 84191  1  0
 85192  1  0
 85193  1  0
 86194  1  0
 86195  1  0
 87196  1  0
 87197  1  0
 91198  1  0
 92199  1  0
M  END
$$$$

     RDKit          3D

199202  0  0  0  0  0  0  0  0999 V2000
   -1.9130   -1.8552   -1.3034 C   0  0  0  0  0  0  0  0  0  0  0  0
   -1.0183   -1.9266   -0.0420 C   0  0  0  0  0  0  0  0  0  0  0  0
   -0.4247   -0.5669    0.2244 C   0  0  2  0  0  0  0  0  0  0  0  0
    0.4320   -0.0702   -0.8750 C   0  0  0  0  0  0  0  0  0  0  0  0
    0.0591   -0.3867    1.6383 C   0  0  1  0  0  0  0  0  0  0  0  0
    1.1119   -1.2742    2.0539 C   0  0  1  0  0  0  0  0  0  0  0  0
    1.4893   -1.2844    3.5323 C   0  0  0  0  0  0  0  0  0  0  0  0
    0.4117   -1.6735    4.4451 C   0  0  0  0  0  0  0  0  0  0  0  0
   -0.8080   -1.7585    4.1504 O   0  0  0  0  0  0  0  0  0  0  0  0
    0.7881   -1.9942    5.8002 N   0  0  0  0  0  0  0  0  0  0  0  0
    2.1455   -1.9882    6.3055 C   0  0  0  0  0  0  0  0  0  0  0  0
    1.9578   -1.8055    7.7817 C   0  0  0  0  0  0  0  0  0  0  0  0
    0.7826   -2.7659    8.0034 C   0  0  0  0  0  0  0  0  0  0  0  0
   -0.1408   -2.4014    6.8686 C   0  0  1  0  0  0  0  0  0  0  0  0
   -1.0964   -1.3301    7.2153 C   0  0  1  0  0  0  0  0  0  0  0  0
   -2.2740   -1.6533    8.0696 C   0  0  1  0  0  0  0  0  0  0  0  0
   -3.1391   -2.7117    7.3637 C   0  0  0  0  0  0  0  0  0  0  0  0
   -1.8993   -2.1421    9.4309 C   0  0  0  0  0  0  0  0  0  0  0  0
   -1.4056   -1.2666   10.1931 O   0  0  0  0  0  0  0  0  0  0  0  0
   -2.1086   -3.4827    9.7622 N   0  0  0  0  0  0  0  0  0  0  0  0
   -1.8036   -4.2183   10.9404 C   0  0  2  0  0  0  0  0  0  0  0  0
   -1.7123   -5.6890   10.6179 C   0  0  0  0  0  0  0  0  0  0  0  0
   -2.6148   -3.9795   12.1676 C   0  0  1  0  0  0  0  0  0  0  0  0
   -2.1386   -2.9648   13.1056 C   0  0  0  0  0  0  0  0  0  0  0  0
   -2.9915   -2.6895   14.1958 C   0  0  0  0  0  0  0  0  0  0  0  0
   -2.6011   -1.7711   15.1735 C   0  0  0  0  0  0  0  0  0  0  0  0
   -1.3936   -1.1078   15.1208 C   0  0  0  0  0  0  0  0  0  0  0  0
   -0.5657   -1.3781   14.0563 C   0  0  0  0  0  0  0  0  0  0  0  0
   -0.9578   -2.2855   13.0947 C   0  0  0  0  0  0  0  0  0  0  0  0
   -3.9800   -4.0949   11.9996 O   0  0  0  0  0  0  0  0  0  0  0  0
   -0.4440   -0.2131    7.7244 O   0  0  0  0  0  0  0  0  0  0  0  0
   -0.4715    0.8925    6.9156 C   0  0  0  0  0  0  0  0  0  0  0  0
    0.8723   -2.6544    1.7495 O   0  0  0  0  0  0  0  0  0  0  0  0
    2.0358   -3.1204    1.0748 C   0  0  0  0  0  0  0  0  0  0  0  0
    0.2729    1.0366    1.9211 N   0  0  0  0  0  0  0  0  0  0  0  0
   -0.7969    1.6697    2.7187 C   0  0  0  0  0  0  0  0  0  0  0  0
    1.3932    1.7798    1.5376 C   0  0  0  0  0  0  0  0  0  0  0  0
    2.3767    1.1279    1.0382 O   0  0  0  0  0  0  0  0  0  0  0  0
    1.6013    3.2385    1.6297 C   0  0  1  0  0  0  0  0  0  0  0  0
    2.4434    3.7846    0.4791 C   0  0  0  0  0  0  0  0  0  0  0  0
    3.8002    3.1392    0.4131 C   0  0  0  0  0  0  0  0  0  0  0  0
    1.7299    3.8623   -0.8221 C   0  0  0  0  0  0  0  0  0  0  0  0
    0.3998    4.0145    1.6938 N   0  0  0  0  0  0  0  0  0  0  0  0
   -0.0885    4.8605    2.7032 C   0  0  0  0  0  0  0  0  0  0  0  0
    0.4970    5.0717    3.7960 O   0  0  0  0  0  0  0  0  0  0  0  0
   -1.4195    5.5355    2.3993 C   0  0  1  0  0  0  0  0  0  0  0  0
   -1.5455    6.7800    3.1677 C   0  0  0  0  0  0  0  0  0  0  0  0
   -0.4837    7.8066    2.9571 C   0  0  0  0  0  0  0  0  0  0  0  0
   -2.9173    7.4010    2.8475 C   0  0  0  0  0  0  0  0  0  0  0  0
   -1.7199    5.4615    1.0284 N   0  0  0  0  0  0  0  0  0  0  0  0
   -2.7972    4.5459    0.5845 C   0  0  0  0  0  0  0  0  0  0  0  0
   -1.1186    6.2035   -0.0502 C   0  0  0  0  0  0  0  0  0  0  0  0
   -0.3059    7.1444    0.1436 O   0  0  0  0  0  0  0  0  0  0  0  0
   -1.4094    5.9040   -1.3548 O   0  0  0  0  0  0  0  0  0  0  0  0
   -0.8949    6.5836   -2.4897 C   0  0  0  0  0  0  0  0  0  0  0  0
   -1.3562    5.8108   -3.6997 C   0  0  0  0  0  0  0  0  0  0  0  0
   -2.5898    5.9589   -4.2744 C   0  0  0  0  0  0  0  0  0  0  0  0
   -2.8525    5.1090   -5.3636 C   0  0  0  0  0  0  0  0  0  0  0  0
   -1.9505    4.1969   -5.8258 C   0  0  0  0  0  0  0  0  0  0  0  0
   -0.6738    4.0547   -5.2257 C   0  0  0  0  0  0  0  0  0  0  0  0
   -0.4385    4.8867   -4.1708 C   0  0  0  0  0  0  0  0  0  0  0  0
   -2.1924    3.2476   -6.8510 N   0  0  0  0  0  0  0  0  0  0  0  0
   -2.1581    3.4215   -8.2266 C   0  0  0  0  0  0  0  0  0  0  0  0
   -1.9177    4.5210   -8.8183 O   0  0  0  0  0  0  0  0  0  0  0  0
   -2.4204    2.2504   -9.1189 C   0  0  1  0  0  0  0  0  0  0  0  0
   -1.4761    2.1828  -10.2915 C   0  0  0  0  0  0  0  0  0  0  0  0
   -1.8387    0.9659  -11.1245 C   0  0  0  0  0  0  0  0  0  0  0  0
   -0.9363    0.8430  -12.3338 C   0  0  0  0  0  0  0  0  0  0  0  0
   -1.2926   -0.3141  -13.1336 N   0  0  0  0  0  0  0  0  0  0  0  0
   -0.5786   -0.6198  -14.3243 C   0  0  0  0  0  0  0  0  0  0  0  0
    0.3823    0.0680  -14.7570 O   0  0  0  0  0  0  0  0  0  0  0  0
   -0.9148   -1.7625  -15.1339 N   0  0  0  0  0  0  0  0  0  0  0  0
   -2.3423    1.0911   -8.2672 N   0  0  0  0  0  0  0  0  0  0  0  0
   -3.2889    0.0952   -8.0713 C   0  0  0  0  0  0  0  0  0  0  0  0
   -4.4069    0.1254   -8.7007 O   0  0  0  0  0  0  0  0  0  0  0  0
   -3.0602   -1.0430   -7.1305 C   0  0  1  0  0  0  0  0  0  0  0  0
   -3.3781   -2.3667   -7.7432 C   0  0  0  0  0  0  0  0  0  0  0  0
   -3.1264   -3.4884   -6.7622 C   0  0  0  0  0  0  0  0  0  0  0  0
   -4.8498   -2.3845   -8.1141 C   0  0  0  0  0  0  0  0  0  0  0  0
   -1.7935   -0.9785   -6.4487 N   0  0  0  0  0  0  0  0  0  0  0  0
   -0.5324   -1.1282   -7.0718 C   0  0  0  0  0  0  0  0  0  0  0  0
   -0.4286   -1.3406   -8.3277 O   0  0  0  0  0  0  0  0  0  0  0  0
    0.7515   -1.0503   -6.3233 C   0  0  0  0  0  0  0  0  0  0  0  0
    1.9572   -1.2671   -7.2154 C   0  0  0  0  0  0  0  0  0  0  0  0
    3.2468   -1.1510   -6.4110 C   0  0  0  0  0  0  0  0  0  0  0  0
    3.3379   -2.1564   -5.3029 C   0  0  0  0  0  0  0  0  0  0  0  0
    4.6307   -2.0136   -4.5237 C   0  0  0  0  0  0  0  0  0  0  0  0
    4.7835   -2.9468   -3.4558 N   0  0  0  0  0  0  0  0  0  0  0  0
    4.3570   -2.7457   -2.1273 C   0  0  0  0  0  0  0  0  0  0  0  0
    3.7683   -1.7316   -1.6365 O   0  0  0  0  0  0  0  0  0  0  0  0
    4.6954   -3.9343   -1.3152 C   0  0  0  0  0  0  0  0  0  0  0  0
    5.2834   -4.7743   -2.1210 C   0  0  0  0  0  0  0  0  0  0  0  0
    5.3911   -4.2598   -3.4802 C   0  0  0  0  0  0  0  0  0  0  0  0
    5.9112   -4.8486   -4.4627 O   0  0  0  0  0  0  0  0  0  0  0  0
   -2.5221   -0.9541   -1.3128 H   0  0  0  0  0  0  0  0  0  0  0  0
   -2.6015   -2.7368   -1.2385 H   0  0  0  0  0  0  0  0  0  0  0  0
   -1.2958   -1.9842   -2.1996 H   0  0  0  0  0  0  0  0  0  0  0  0
   -0.3259   -2.7283   -0.2399 H   0  0  0  0  0  0  0  0  0  0  0  0
   -1.7277   -2.1637    0.7743 H   0  0  0  0  0  0  0  0  0  0  0  0
   -1.3540    0.1257    0.1737 H   0  0  0  0  0  0  0  0  0  0  0  0
   -0.0124   -0.3747   -1.8870 H   0  0  0  0  0  0  0  0  0  0  0  0
    0.5447    1.0131   -0.9480 H   0  0  0  0  0  0  0  0  0  0  0  0
    1.4335   -0.5314   -0.9045 H   0  0  0  0  0  0  0  0  0  0  0  0
   -0.9552   -0.6671    2.1860 H   0  0  0  0  0  0  0  0  0  0  0  0
    2.0732   -1.0719    1.5532 H   0  0  0  0  0  0  0  0  0  0  0  0
    2.3650   -1.9567    3.6228 H   0  0  0  0  0  0  0  0  0  0  0  0
    1.8612   -0.2744    3.8475 H   0  0  0  0  0  0  0  0  0  0  0  0
    2.7756   -1.1768    5.8932 H   0  0  0  0  0  0  0  0  0  0  0  0
    2.6262   -2.9916    6.1740 H   0  0  0  0  0  0  0  0  0  0  0  0
    2.8361   -2.1632    8.3788 H   0  0  0  0  0  0  0  0  0  0  0  0
    1.7053   -0.7698    8.0809 H   0  0  0  0  0  0  0  0  0  0  0  0
    0.4048   -2.6928    9.0071 H   0  0  0  0  0  0  0  0  0  0  0  0
    1.2628   -3.7815    7.8051 H   0  0  0  0  0  0  0  0  0  0  0  0
   -0.5942   -3.3318    6.5035 H   0  0  0  0  0  0  0  0  0  0  0  0
   -1.4990   -0.9678    6.1849 H   0  0  0  0  0  0  0  0  0  0  0  0
   -2.9556   -0.7971    8.2246 H   0  0  0  0  0  0  0  0  0  0  0  0
   -2.5746   -3.5719    7.0207 H   0  0  0  0  0  0  0  0  0  0  0  0
   -3.6063   -2.1715    6.4930 H   0  0  0  0  0  0  0  0  0  0  0  0
   -3.9827   -2.9904    8.0189 H   0  0  0  0  0  0  0  0  0  0  0  0
   -2.5837   -4.0695    8.9801 H   0  0  0  0  0  0  0  0  0  0  0  0
   -0.7286   -3.9278   11.2724 H   0  0  0  0  0  0  0  0  0  0  0  0
   -1.4007   -6.1805   11.5711 H   0  0  0  0  0  0  0  0  0  0  0  0
   -2.7151   -6.0537   10.3182 H   0  0  0  0  0  0  0  0  0  0  0  0
   -0.9395   -5.8802    9.8571 H   0  0  0  0  0  0  0  0  0  0  0  0
   -2.3980   -4.9676   12.7942 H   0  0  0  0  0  0  0  0  0  0  0  0
   -3.9350   -3.1739   14.2860 H   0  0  0  0  0  0  0  0  0  0  0  0
   -3.2396   -1.5473   16.0129 H   0  0  0  0  0  0  0  0  0  0  0  0
   -1.0465   -0.3998   15.8496 H   0  0  0  0  0  0  0  0  0  0  0  0
    0.4093   -0.8699   13.9741 H   0  0  0  0  0  0  0  0  0  0  0  0
   -0.2406   -2.4496   12.2921 H   0  0  0  0  0  0  0  0  0  0  0  0
   -4.2485   -5.0181   11.8333 H   0  0  0  0  0  0  0  0  0  0  0  0
   -1.5052    1.2384    6.6885 H   0  0  0  0  0  0  0  0  0  0  0  0
    0.1497    0.7383    6.0119 H   0  0  0  0  0  0  0  0  0  0  0  0
    0.0255    1.7269    7.4970 H   0  0  0  0  0  0  0  0  0  0  0  0
    2.9213   -2.9928    1.6952 H   0  0  0  0  0  0  0  0  0  0  0  0
    2.0208   -2.5919    0.1096 H   0  0  0  0  0  0  0  0  0  0  0  0
    1.8386   -4.1875    0.8208 H   0  0  0  0  0  0  0  0  0  0  0  0
   -0.3210    2.1785    3.5718 H   0  0  0  0  0  0  0  0  0  0  0  0
   -1.5126    0.8974    3.0955 H   0  0  0  0  0  0  0  0  0  0  0  0
   -1.3807    2.3896    2.1370 H   0  0  0  0  0  0  0  0  0  0  0  0
    2.1950    3.5022    2.5466 H   0  0  0  0  0  0  0  0  0  0  0  0
    2.6459    4.8567    0.8039 H   0  0  0  0  0  0  0  0  0  0  0  0
    3.8041    2.3176   -0.3456 H   0  0  0  0  0  0  0  0  0  0  0  0
    4.5424    3.9374    0.1254 H   0  0  0  0  0  0  0  0  0  0  0  0
    4.0585    2.7548    1.4184 H   0  0  0  0  0  0  0  0  0  0  0  0
    1.7092    4.9125   -1.1836 H   0  0  0  0  0  0  0  0  0  0  0  0
    0.7444    3.3819   -0.8497 H   0  0  0  0  0  0  0  0  0  0  0  0
    2.3580    3.3148   -1.5863 H   0  0  0  0  0  0  0  0  0  0  0  0
   -0.2176    3.9391    0.8170 H   0  0  0  0  0  0  0  0  0  0  0  0
   -2.1327    4.7766    2.9609 H   0  0  0  0  0  0  0  0  0  0  0  0
   -1.5440    6.5125    4.2705 H   0  0  0  0  0  0  0  0  0  0  0  0
    0.5002    7.3802    2.6498 H   0  0  0  0  0  0  0  0  0  0  0  0
   -0.3261    8.3352    3.9675 H   0  0  0  0  0  0  0  0  0  0  0  0
   -0.8750    8.5927    2.2810 H   0  0  0  0  0  0  0  0  0  0  0  0
   -3.2991    7.8257    3.7693 H   0  0  0  0  0  0  0  0  0  0  0  0
   -3.5529    6.6067    2.4273 H   0  0  0  0  0  0  0  0  0  0  0  0
   -2.7156    8.1575    2.0569 H   0  0  0  0  0  0  0  0  0  0  0  0
   -3.6625    5.2112    0.3553 H   0  0  0  0  0  0  0  0  0  0  0  0
   -3.0018    3.8634    1.4019 H   0  0  0  0  0  0  0  0  0  0  0  0
   -2.5391    4.0111   -0.3335 H   0  0  0  0  0  0  0  0  0  0  0  0
    0.1873    6.6470   -2.4927 H   0  0  0  0  0  0  0  0  0  0  0  0
   -1.3715    7.5844   -2.5684 H   0  0  0  0  0  0  0  0  0  0  0  0
   -3.2775    6.6671   -3.8991 H   0  0  0  0  0  0  0  0  0  0  0  0
   -3.8149    5.1686   -5.8597 H   0  0  0  0  0  0  0  0  0  0  0  0
    0.0409    3.3446   -5.5810 H   0  0  0  0  0  0  0  0  0  0  0  0
    0.5527    4.7859   -3.6954 H   0  0  0  0  0  0  0  0  0  0  0  0
   -2.4339    2.2764   -6.4871 H   0  0  0  0  0  0  0  0  0  0  0  0
   -3.4401    2.3277   -9.5294 H   0  0  0  0  0  0  0  0  0  0  0  0
   -0.4188    2.0764  -10.0199 H   0  0  0  0  0  0  0  0  0  0  0  0
   -1.5911    3.0967  -10.8993 H   0  0  0  0  0  0  0  0  0  0  0  0
   -1.9060    0.0493  -10.5518 H   0  0  0  0  0  0  0  0  0  0  0  0
   -2.8629    1.1652  -11.5277 H   0  0  0  0  0  0  0  0  0  0  0  0
    0.0942    0.6292  -11.9321 H   0  0  0  0  0  0  0  0  0  0  0  0
   -0.8710    1.7625  -12.9224 H   0  0  0  0  0  0  0  0  0  0  0  0
   -2.0827   -0.9617  -12.8759 H   0  0  0  0  0  0  0  0  0  0  0  0
   -0.1652   -2.4670  -15.3003 H   0  0  0  0  0  0  0  0  0  0  0  0
   -1.8706   -1.8638  -15.5239 H   0  0  0  0  0  0  0  0  0  0  0  0
   -1.4350    1.0076   -7.7174 H   0  0  0  0  0  0  0  0  0  0  0  0
   -3.8425   -0.8813   -6.3188 H   0  0  0  0  0  0  0  0  0  0  0  0
   -2.8219   -2.5628   -8.6881 H   0  0  0  0  0  0  0  0  0  0  0  0
   -2.2906   -4.1524   -7.0539 H   0  0  0  0  0  0  0  0  0  0  0  0
   -4.0271   -4.1145   -6.7048 H   0  0  0  0  0  0  0  0  0  0  0  0
   -2.9648   -3.0350   -5.7544 H   0  0  0  0  0  0  0  0  0  0  0  0
   -5.3596   -1.6295   -7.4570 H   0  0  0  0  0  0  0  0  0  0  0  0
   -5.0182   -2.0878   -9.1545 H   0  0  0  0  0  0  0  0  0  0  0  0
   -5.3040   -3.3584   -7.8530 H   0  0  0  0  0  0  0  0  0  0  0  0
   -1.7427   -0.8161   -5.3903 H   0  0  0  0  0  0  0  0  0  0  0  0
    0.7531   -1.7385   -5.4569 H   0  0  0  0  0  0  0  0  0  0  0  0
    0.8440   -0.0215   -5.9128 H   0  0  0  0  0  0  0  0  0  0  0  0
    1.9970   -0.5487   -8.0305 H   0  0  0  0  0  0  0  0  0  0  0  0
    1.9260   -2.3226   -7.5674 H   0  0  0  0  0  0  0  0  0  0  0  0
    4.1283   -1.3298   -7.0799 H   0  0  0  0  0  0  0  0  0  0  0  0
    3.3278   -0.1053   -6.1026 H   0  0  0  0  0  0  0  0  0  0  0  0
    2.5248   -2.0564   -4.5507 H   0  0  0  0  0  0  0  0  0  0  0  0
    3.2376   -3.1704   -5.7314 H   0  0  0  0  0  0  0  0  0  0  0  0
    5.4728   -2.1346   -5.2241 H   0  0  0  0  0  0  0  0  0  0  0  0
    4.7120   -0.9675   -4.1250 H   0  0  0  0  0  0  0  0  0  0  0  0
    4.4831   -4.0661   -0.2378 H   0  0  0  0  0  0  0  0  0  0  0  0
    5.6718   -5.7682   -1.8561 H   0  0  0  0  0  0  0  0  0  0  0  0
  1  2  1  0
  2  3  1  0
  3  4  1  0
  3  5  1  0
  5  6  1  0
  6  7  1  0
  7  8  1  0
  8  9  2  0
  8 10  1  0
 10 11  1  0
 11 12  1  0
 12 13  1  0
 13 14  1  0
 14 15  1  0
 15 16  1  0
 16 17  1  0
 16 18  1  0
 18 19  2  0
 18 20  1  0
 20 21  1  0
 21 22  1  0
 21 23  1  0
 23 24  1  0
 24 25  2  0
 25 26  1  0
 26 27  2  0
 27 28  1  0
 28 29  2  0
 23 30  1  0
 15 31  1  0
 31 32  1  0
  6 33  1  0
 33 34  1  0
  5 35  1  0
 35 36  1  0
 35 37  1  0
 37 38  2  0
 37 39  1  0
 39 40  1  0
 40 41  1  0
 40 42  1  0
 39 43  1  0
 43 44  1  0
 44 45  2  0
 44 46  1  0
 46 47  1  0
 47 48  1  0
 47 49  1  0
 46 50  1  0
 50 51  1  0
 50 52  1  0
 52 53  2  0
 52 54  1  0
 54 55  1  0
 55 56  1  0
 56 57  1  0
 57 58  2  0
 58 59  1  0
 59 60  2  0
 60 61  1  0
 59 62  1  0
 62 63  1  0
 63 64  2  0
 63 65  1  0
 65 66  1  0
 66 67  1  0
 67 68  1  0
 68 69  1  0
 69 70  1  0
 70 71  2  0
 70 72  1  0
 65 73  1  0
 73 74  1  0
 74 75  2  0
 74 76  1  0
 76 77  1  0
 77 78  1  0
 77 79  1  0
 76 80  1  0
 80 81  1  0
 81 82  2  0
 81 83  1  0
 83 84  1  0
 84 85  1  0
 85 86  1  0
 86 87  1  0
 87 88  1  0
 88 89  1  0
 89 90  2  0
 89 91  1  0
 91 92  2  0
 92 93  1  0
 93 94  2  0
 14 10  1  0
 29 24  1  0
 61 56  2  0
 93 88  1  0
  1 95  1  0
  1 96  1  0
  1 97  1  0
  2 98  1  0
  2 99  1  0
  3100  1  1
  4101  1  0
  4102  1  0
  4103  1  0
  5104  1  1
  6105  1  6
  7106  1  0
  7107  1  0
 11108  1  0
 11109  1  0
 12110  1  0
 12111  1  0
 13112  1  0
 13113  1  0
 14114  1  6
 15115  1  6
 16116  1  1
 17117  1  0
 17118  1  0
 17119  1  0
 20120  1  0
 21121  1  1
 22122  1  0
 22123  1  0
 22124  1  0
 23125  1  1
 25126  1  0
 26127  1  0
 27128  1  0
 28129  1  0
 29130  1  0
 30131  1  0
 32132  1  0
 32133  1  0
 32134  1  0
 34135  1  0
 34136  1  0
 34137  1  0
 36138  1  0
 36139  1  0
 36140  1  0
 39141  1  1
 40142  1  0
 41143  1  0
 41144  1  0
 41145  1  0
 42146  1  0
 42147  1  0
 42148  1  0
 43149  1  0
 46150  1  1
 47151  1  0
 48152  1  0
 48153  1  0
 48154  1  0
 49155  1  0
 49156  1  0
 49157  1  0
 51158  1  0
 51159  1  0
 51160  1  0
 55161  1  0
 55162  1  0
 57163  1  0
 58164  1  0
 60165  1  0
 61166  1  0
 62167  1  0
 65168  1  6
 66169  1  0
 66170  1  0
 67171  1  0
 67172  1  0
 68173  1  0
 68174  1  0
 69175  1  0
 72176  1  0
 72177  1  0
 73178  1  0
 76179  1  1
 77180  1  0
 78181  1  0
 78182  1  0
 78183  1  0
 79184  1  0
 79185  1  0
 79186  1  0
 80187  1  0
 83188  1  0
 83189  1  0
 84190  1  0
 84191  1  0
 85192  1  0
 85193  1  0
 86194  1  0
 86195  1  0
 87196  1  0
 87197  1  0
 91198  1  0
 92199  1  0
M  END
$$$$

     RDKit          3D

199202  0  0  0  0  0  0  0  0999 V2000
    0.1413    0.3513   -6.1606 C   0  0  0  0  0  0  0  0  0  0  0  0
   -1.1607    0.8729   -5.6548 C   0  0  0  0  0  0  0  0  0  0  0  0
   -0.9387    1.8951   -4.5641 C   0  0  2  0  0  0  0  0  0  0  0  0
   -2.3231    2.3585   -4.1069 C   0  0  0  0  0  0  0  0  0  0  0  0
   -0.0336    3.0069   -4.8991 C   0  0  1  0  0  0  0  0  0  0  0  0
   -0.4245    3.9600   -6.0003 C   0  0  1  0  0  0  0  0  0  0  0  0
   -0.3015    3.4678   -7.3935 C   0  0  0  0  0  0  0  0  0  0  0  0
   -0.6732    4.5176   -8.3947 C   0  0  0  0  0  0  0  0  0  0  0  0
   -1.8962    4.6292   -8.7318 O   0  0  0  0  0  0  0  0  0  0  0  0
    0.3445    5.3448   -8.9318 N   0  0  0  0  0  0  0  0  0  0  0  0
    1.7752    5.3794   -8.6372 C   0  0  0  0  0  0  0  0  0  0  0  0
    2.1689    6.8462   -8.6474 C   0  0  0  0  0  0  0  0  0  0  0  0
    0.9376    7.5393   -9.2059 C   0  0  0  0  0  0  0  0  0  0  0  0
    0.2078    6.4147   -9.9502 C   0  0  1  0  0  0  0  0  0  0  0  0
    1.0484    6.0717  -11.1616 C   0  0  1  0  0  0  0  0  0  0  0  0
    0.6430    4.7451  -11.7492 C   0  0  1  0  0  0  0  0  0  0  0  0
   -0.7564    4.7019  -12.2786 C   0  0  0  0  0  0  0  0  0  0  0  0
    1.6392    4.1578  -12.6583 C   0  0  0  0  0  0  0  0  0  0  0  0
    2.7698    4.6845  -12.9074 O   0  0  0  0  0  0  0  0  0  0  0  0
    1.4123    2.9097  -13.3506 N   0  0  0  0  0  0  0  0  0  0  0  0
    2.4598    2.3732  -14.2181 C   0  0  2  0  0  0  0  0  0  0  0  0
    1.9015    2.2588  -15.6083 C   0  0  0  0  0  0  0  0  0  0  0  0
    2.8990    1.0103  -13.7195 C   0  0  1  0  0  0  0  0  0  0  0  0
    3.4528    1.1291  -12.3195 C   0  0  0  0  0  0  0  0  0  0  0  0
    4.8113    1.0960  -12.0798 C   0  0  0  0  0  0  0  0  0  0  0  0
    5.3321    1.2028  -10.7941 C   0  0  0  0  0  0  0  0  0  0  0  0
    4.4722    1.3474   -9.6985 C   0  0  0  0  0  0  0  0  0  0  0  0
    3.1242    1.3786   -9.9492 C   0  0  0  0  0  0  0  0  0  0  0  0
    2.6026    1.2710  -11.2430 C   0  0  0  0  0  0  0  0  0  0  0  0
    1.8174    0.1352  -13.7348 O   0  0  0  0  0  0  0  0  0  0  0  0
    0.8675    7.1065  -12.0668 O   0  0  0  0  0  0  0  0  0  0  0  0
    1.9343    7.8453  -12.4386 C   0  0  0  0  0  0  0  0  0  0  0  0
   -1.4377    4.8279   -5.7475 O   0  0  0  0  0  0  0  0  0  0  0  0
   -1.0262    6.1519   -5.6329 C   0  0  0  0  0  0  0  0  0  0  0  0
    0.5710    3.6899   -3.7993 N   0  0  0  0  0  0  0  0  0  0  0  0
    2.0622    3.5435   -3.7393 C   0  0  0  0  0  0  0  0  0  0  0  0
    0.0156    4.4265   -2.7517 C   0  0  0  0  0  0  0  0  0  0  0  0
   -1.2021    4.5720   -2.4907 O   0  0  0  0  0  0  0  0  0  0  0  0
    0.9516    5.1284   -1.8084 C   0  0  1  0  0  0  0  0  0  0  0  0
    1.1568    6.5795   -2.2800 C   0  0  0  0  0  0  0  0  0  0  0  0
   -0.0912    7.3919   -2.2887 C   0  0  0  0  0  0  0  0  0  0  0  0
    2.2383    7.2480   -1.4564 C   0  0  0  0  0  0  0  0  0  0  0  0
    0.4258    5.1975   -0.4469 N   0  0  0  0  0  0  0  0  0  0  0  0
    1.3976    4.9929    0.5946 C   0  0  0  0  0  0  0  0  0  0  0  0
    2.5876    4.7784    0.1540 O   0  0  0  0  0  0  0  0  0  0  0  0
    1.1850    5.0103    2.0044 C   0  0  1  0  0  0  0  0  0  0  0  0
    1.0033    6.3472    2.6766 C   0  0  0  0  0  0  0  0  0  0  0  0
    2.2387    7.2096    2.4787 C   0  0  0  0  0  0  0  0  0  0  0  0
   -0.1870    7.1407    2.3232 C   0  0  0  0  0  0  0  0  0  0  0  0
    0.3235    3.9710    2.5998 N   0  0  0  0  0  0  0  0  0  0  0  0
   -1.0830    3.8550    2.3388 C   0  0  0  0  0  0  0  0  0  0  0  0
    1.0114    3.0964    3.4527 C   0  0  0  0  0  0  0  0  0  0  0  0
    2.2705    3.2481    3.6223 O   0  0  0  0  0  0  0  0  0  0  0  0
    0.4878    2.0173    4.1951 O   0  0  0  0  0  0  0  0  0  0  0  0
    1.4853    1.3423    4.9784 C   0  0  0  0  0  0  0  0  0  0  0  0
    1.0640    0.2343    5.8110 C   0  0  0  0  0  0  0  0  0  0  0  0
    0.6766    0.5626    7.1341 C   0  0  0  0  0  0  0  0  0  0  0  0
    0.3906   -0.4715    7.9705 C   0  0  0  0  0  0  0  0  0  0  0  0
    0.4541   -1.8084    7.6131 C   0  0  0  0  0  0  0  0  0  0  0  0
    0.8255   -2.0884    6.3304 C   0  0  0  0  0  0  0  0  0  0  0  0
    1.1399   -1.0921    5.3953 C   0  0  0  0  0  0  0  0  0  0  0  0
    0.2515   -2.7549    8.6315 N   0  0  0  0  0  0  0  0  0  0  0  0
   -0.9047   -3.3796    9.1031 C   0  0  0  0  0  0  0  0  0  0  0  0
   -2.0667   -3.2331    8.6872 O   0  0  0  0  0  0  0  0  0  0  0  0
   -0.6280   -4.3532   10.2863 C   0  0  1  0  0  0  0  0  0  0  0  0
    0.0165   -3.5681   11.3522 C   0  0  0  0  0  0  0  0  0  0  0  0
    0.3767   -4.3494   12.6255 C   0  0  0  0  0  0  0  0  0  0  0  0
    1.0730   -3.3739   13.5770 C   0  0  0  0  0  0  0  0  0  0  0  0
    1.4451   -4.0724   14.7829 N   0  0  0  0  0  0  0  0  0  0  0  0
    2.1137   -3.2814   15.7756 C   0  0  0  0  0  0  0  0  0  0  0  0
    2.2926   -2.0576   15.4581 O   0  0  0  0  0  0  0  0  0  0  0  0
    2.5559   -3.7802   17.0180 N   0  0  0  0  0  0  0  0  0  0  0  0
   -1.8380   -5.0174   10.6025 N   0  0  0  0  0  0  0  0  0  0  0  0
   -2.4002   -6.0113    9.7209 C   0  0  0  0  0  0  0  0  0  0  0  0
   -1.7688   -6.1958    8.6557 O   0  0  0  0  0  0  0  0  0  0  0  0
   -3.6126   -6.7689   10.0031 C   0  0  1  0  0  0  0  0  0  0  0  0
   -4.4089   -6.3138   11.1517 C   0  0  0  0  0  0  0  0  0  0  0  0
   -4.8601   -4.8985   11.0770 C   0  0  0  0  0  0  0  0  0  0  0  0
   -3.6517   -6.5630   12.4416 C   0  0  0  0  0  0  0  0  0  0  0  0
   -4.2807   -7.1840    8.8170 N   0  0  0  0  0  0  0  0  0  0  0  0
   -4.3094   -8.4565    8.2419 C   0  0  0  0  0  0  0  0  0  0  0  0
   -3.7022   -9.4812    8.6945 O   0  0  0  0  0  0  0  0  0  0  0  0
   -5.1243   -8.6397    6.9967 C   0  0  0  0  0  0  0  0  0  0  0  0
   -4.9941  -10.0774    6.5690 C   0  0  0  0  0  0  0  0  0  0  0  0
   -5.8360  -10.3680    5.3429 C   0  0  0  0  0  0  0  0  0  0  0  0
   -5.6449  -11.8230    4.9861 C   0  0  0  0  0  0  0  0  0  0  0  0
   -6.4728  -12.2352    3.7846 C   0  0  0  0  0  0  0  0  0  0  0  0
   -6.3017  -13.6243    3.4292 N   0  0  0  0  0  0  0  0  0  0  0  0
   -5.3141  -14.1530    2.5151 C   0  0  0  0  0  0  0  0  0  0  0  0
   -4.4994  -13.4111    1.9350 O   0  0  0  0  0  0  0  0  0  0  0  0
   -5.4755  -15.5926    2.4406 C   0  0  0  0  0  0  0  0  0  0  0  0
   -6.4806  -15.9773    3.2306 C   0  0  0  0  0  0  0  0  0  0  0  0
   -7.0355  -14.7642    3.8783 C   0  0  0  0  0  0  0  0  0  0  0  0
   -7.9876  -14.7264    4.6846 O   0  0  0  0  0  0  0  0  0  0  0  0
    0.1029   -0.7634   -6.3428 H   0  0  0  0  0  0  0  0  0  0  0  0
    0.9060    0.4643   -5.3397 H   0  0  0  0  0  0  0  0  0  0  0  0
    0.5517    0.7850   -7.0606 H   0  0  0  0  0  0  0  0  0  0  0  0
   -1.5961   -0.0279   -5.0657 H   0  0  0  0  0  0  0  0  0  0  0  0
   -1.9331    1.1212   -6.3807 H   0  0  0  0  0  0  0  0  0  0  0  0
   -0.4434    1.3201   -3.7259 H   0  0  0  0  0  0  0  0  0  0  0  0
   -3.0833    1.5930   -4.4714 H   0  0  0  0  0  0  0  0  0  0  0  0
   -2.5926    3.3612   -4.3911 H   0  0  0  0  0  0  0  0  0  0  0  0
   -2.3619    2.2365   -3.0079 H   0  0  0  0  0  0  0  0  0  0  0  0
    0.8587    2.4709   -5.4415 H   0  0  0  0  0  0  0  0  0  0  0  0
    0.5147    4.7184   -5.9731 H   0  0  0  0  0  0  0  0  0  0  0  0
    0.7775    3.1671   -7.6248 H   0  0  0  0  0  0  0  0  0  0  0  0
   -0.8800    2.5867   -7.6797 H   0  0  0  0  0  0  0  0  0  0  0  0
    2.3632    4.8113   -9.3731 H   0  0  0  0  0  0  0  0  0  0  0  0
    2.0476    4.9844   -7.6592 H   0  0  0  0  0  0  0  0  0  0  0  0
    2.4162    7.2567   -7.6676 H   0  0  0  0  0  0  0  0  0  0  0  0
    3.0478    6.9529   -9.3082 H   0  0  0  0  0  0  0  0  0  0  0  0
    1.2373    8.3711   -9.8151 H   0  0  0  0  0  0  0  0  0  0  0  0
    0.2775    7.8408   -8.3508 H   0  0  0  0  0  0  0  0  0  0  0  0
   -0.8098    6.6433  -10.1545 H   0  0  0  0  0  0  0  0  0  0  0  0
    2.1006    6.0583  -10.8824 H   0  0  0  0  0  0  0  0  0  0  0  0
    0.6238    4.0538  -10.8036 H   0  0  0  0  0  0  0  0  0  0  0  0
   -0.7390    4.2825  -13.3269 H   0  0  0  0  0  0  0  0  0  0  0  0
   -1.4243    3.9898  -11.7308 H   0  0  0  0  0  0  0  0  0  0  0  0
   -1.2243    5.7067  -12.3992 H   0  0  0  0  0  0  0  0  0  0  0  0
    0.4899    2.4222  -13.2108 H   0  0  0  0  0  0  0  0  0  0  0  0
    3.3283    3.0239  -14.1522 H   0  0  0  0  0  0  0  0  0  0  0  0
    2.2074    3.1218  -16.2505 H   0  0  0  0  0  0  0  0  0  0  0  0
    0.7985    2.2394  -15.6487 H   0  0  0  0  0  0  0  0  0  0  0  0
    2.3506    1.3471  -16.0826 H   0  0  0  0  0  0  0  0  0  0  0  0
    3.6951    0.5845  -14.3402 H   0  0  0  0  0  0  0  0  0  0  0  0
    5.5095    0.9773  -12.9155 H   0  0  0  0  0  0  0  0  0  0  0  0
    6.3905    1.1746  -10.5851 H   0  0  0  0  0  0  0  0  0  0  0  0
    4.9112    1.4267   -8.7167 H   0  0  0  0  0  0  0  0  0  0  0  0
    2.4357    1.4970   -9.1225 H   0  0  0  0  0  0  0  0  0  0  0  0
    1.5235    1.3022  -11.3508 H   0  0  0  0  0  0  0  0  0  0  0  0
    1.0931    0.5579  -14.2303 H   0  0  0  0  0  0  0  0  0  0  0  0
    1.5332    8.6429  -13.1566 H   0  0  0  0  0  0  0  0  0  0  0  0
    2.4848    8.4123  -11.6980 H   0  0  0  0  0  0  0  0  0  0  0  0
    2.6850    7.3229  -13.0868 H   0  0  0  0  0  0  0  0  0  0  0  0
   -1.8854    6.8076   -5.3866 H   0  0  0  0  0  0  0  0  0  0  0  0
   -0.2018    6.3182   -4.9247 H   0  0  0  0  0  0  0  0  0  0  0  0
   -0.6453    6.5378   -6.6116 H   0  0  0  0  0  0  0  0  0  0  0  0
    2.4772    4.5524   -3.8041 H   0  0  0  0  0  0  0  0  0  0  0  0
    2.4348    2.9969   -4.6355 H   0  0  0  0  0  0  0  0  0  0  0  0
    2.3730    2.9835   -2.8575 H   0  0  0  0  0  0  0  0  0  0  0  0
    1.9201    4.6666   -1.8265 H   0  0  0  0  0  0  0  0  0  0  0  0
    1.5255    6.5432   -3.3161 H   0  0  0  0  0  0  0  0  0  0  0  0
    0.1199    8.2614   -2.9868 H   0  0  0  0  0  0  0  0  0  0  0  0
   -0.3353    7.8854   -1.3269 H   0  0  0  0  0  0  0  0  0  0  0  0
   -0.9181    6.8231   -2.7125 H   0  0  0  0  0  0  0  0  0  0  0  0
    2.4086    8.2987   -1.8363 H   0  0  0  0  0  0  0  0  0  0  0  0
    3.2234    6.7408   -1.5951 H   0  0  0  0  0  0  0  0  0  0  0  0
    1.9654    7.3836   -0.4001 H   0  0  0  0  0  0  0  0  0  0  0  0
   -0.5355    5.3738   -0.1863 H   0  0  0  0  0  0  0  0  0  0  0  0
    2.2024    4.7038    2.4666 H   0  0  0  0  0  0  0  0  0  0  0  0
    0.9303    6.1134    3.7744 H   0  0  0  0  0  0  0  0  0  0  0  0
    2.8738    7.2151    3.3933 H   0  0  0  0  0  0  0  0  0  0  0  0
    1.9642    8.2136    2.1403 H   0  0  0  0  0  0  0  0  0  0  0  0
    2.8642    6.6938    1.7078 H   0  0  0  0  0  0  0  0  0  0  0  0
   -1.0995    6.8785    2.9283 H   0  0  0  0  0  0  0  0  0  0  0  0
   -0.3902    7.2868    1.2480 H   0  0  0  0  0  0  0  0  0  0  0  0
    0.0273    8.1921    2.6969 H   0  0  0  0  0  0  0  0  0  0  0  0
   -1.5238    4.7678    1.9054 H   0  0  0  0  0  0  0  0  0  0  0  0
   -1.6482    3.6617    3.2857 H   0  0  0  0  0  0  0  0  0  0  0  0
   -1.3190    2.9416    1.7184 H   0  0  0  0  0  0  0  0  0  0  0  0
    2.3601    1.0784    4.3127 H   0  0  0  0  0  0  0  0  0  0  0  0
    1.9164    2.1897    5.6023 H   0  0  0  0  0  0  0  0  0  0  0  0
    0.6187    1.5838    7.4437 H   0  0  0  0  0  0  0  0  0  0  0  0
    0.0882   -0.2196    8.9954 H   0  0  0  0  0  0  0  0  0  0  0  0
    0.8806   -3.1376    6.0032 H   0  0  0  0  0  0  0  0  0  0  0  0
    1.4332   -1.3430    4.3803 H   0  0  0  0  0  0  0  0  0  0  0  0
    1.1893   -3.0366    9.1058 H   0  0  0  0  0  0  0  0  0  0  0  0
    0.1160   -5.0344    9.7778 H   0  0  0  0  0  0  0  0  0  0  0  0
    1.0010   -3.1870   11.0020 H   0  0  0  0  0  0  0  0  0  0  0  0
   -0.5457   -2.6395   11.6291 H   0  0  0  0  0  0  0  0  0  0  0  0
   -0.5227   -4.7795   13.0961 H   0  0  0  0  0  0  0  0  0  0  0  0
    1.0876   -5.1577   12.4247 H   0  0  0  0  0  0  0  0  0  0  0  0
    0.4011   -2.5379   13.8707 H   0  0  0  0  0  0  0  0  0  0  0  0
    1.9942   -2.9794   13.1213 H   0  0  0  0  0  0  0  0  0  0  0  0
    1.2684   -5.0803   14.9812 H   0  0  0  0  0  0  0  0  0  0  0  0
    2.1856   -3.3739   17.9096 H   0  0  0  0  0  0  0  0  0  0  0  0
    3.2421   -4.5463   17.1141 H   0  0  0  0  0  0  0  0  0  0  0  0
   -2.3271   -4.7642   11.4855 H   0  0  0  0  0  0  0  0  0  0  0  0
   -3.1360   -7.7911   10.4591 H   0  0  0  0  0  0  0  0  0  0  0  0
   -5.3266   -7.0061   11.2682 H   0  0  0  0  0  0  0  0  0  0  0  0
   -5.9858   -4.8645   11.0536 H   0  0  0  0  0  0  0  0  0  0  0  0
   -4.6100   -4.3060   12.0111 H   0  0  0  0  0  0  0  0  0  0  0  0
   -4.4354   -4.3090   10.2394 H   0  0  0  0  0  0  0  0  0  0  0  0
   -3.6900   -5.7291   13.1616 H   0  0  0  0  0  0  0  0  0  0  0  0
   -4.0903   -7.4387   13.0249 H   0  0  0  0  0  0  0  0  0  0  0  0
   -2.6063   -6.9374   12.2393 H   0  0  0  0  0  0  0  0  0  0  0  0
   -4.8260   -6.4181    8.3018 H   0  0  0  0  0  0  0  0  0  0  0  0
   -4.7682   -7.9254    6.2214 H   0  0  0  0  0  0  0  0  0  0  0  0
   -6.1914   -8.4283    7.1880 H   0  0  0  0  0  0  0  0  0  0  0  0
   -3.9505  -10.3496    6.3121 H   0  0  0  0  0  0  0  0  0  0  0  0
   -5.3735  -10.7019    7.4036 H   0  0  0  0  0  0  0  0  0  0  0  0
   -6.8682  -10.0894    5.5748 H   0  0  0  0  0  0  0  0  0  0  0  0
   -5.4003   -9.7602    4.5216 H   0  0  0  0  0  0  0  0  0  0  0  0
   -5.9432  -12.4369    5.8503 H   0  0  0  0  0  0  0  0  0  0  0  0
   -4.5767  -12.0492    4.7535 H   0  0  0  0  0  0  0  0  0  0  0  0
   -6.2671  -11.5774    2.9472 H   0  0  0  0  0  0  0  0  0  0  0  0
   -7.5565  -12.1117    4.0381 H   0  0  0  0  0  0  0  0  0  0  0  0
   -4.8864  -16.2995    1.8502 H   0  0  0  0  0  0  0  0  0  0  0  0
   -6.8483  -16.9786    3.3970 H   0  0  0  0  0  0  0  0  0  0  0  0
  1  2  1  0
  2  3  1  0
  3  4  1  0
  3  5  1  0
  5  6  1  0
  6  7  1  0
  7  8  1  0
  8  9  2  0
  8 10  1  0
 10 11  1  0
 11 12  1  0
 12 13  1  0
 13 14  1  0
 14 15  1  0
 15 16  1  0
 16 17  1  0
 16 18  1  0
 18 19  2  0
 18 20  1  0
 20 21  1  0
 21 22  1  0
 21 23  1  0
 23 24  1  0
 24 25  2  0
 25 26  1  0
 26 27  2  0
 27 28  1  0
 28 29  2  0
 23 30  1  0
 15 31  1  0
 31 32  1  0
  6 33  1  0
 33 34  1  0
  5 35  1  0
 35 36  1  0
 35 37  1  0
 37 38  2  0
 37 39  1  0
 39 40  1  0
 40 41  1  0
 40 42  1  0
 39 43  1  0
 43 44  1  0
 44 45  2  0
 44 46  1  0
 46 47  1  0
 47 48  1  0
 47 49  1  0
 46 50  1  0
 50 51  1  0
 50 52  1  0
 52 53  2  0
 52 54  1  0
 54 55  1  0
 55 56  1  0
 56 57  1  0
 57 58  2  0
 58 59  1  0
 59 60  2  0
 60 61  1  0
 59 62  1  0
 62 63  1  0
 63 64  2  0
 63 65  1  0
 65 66  1  0
 66 67  1  0
 67 68  1  0
 68 69  1  0
 69 70  1  0
 70 71  2  0
 70 72  1  0
 65 73  1  0
 73 74  1  0
 74 75  2  0
 74 76  1  0
 76 77  1  0
 77 78  1  0
 77 79  1  0
 76 80  1  0
 80 81  1  0
 81 82  2  0
 81 83  1  0
 83 84  1  0
 84 85  1  0
 85 86  1  0
 86 87  1  0
 87 88  1  0
 88 89  1  0
 89 90  2  0
 89 91  1  0
 91 92  2  0
 92 93  1  0
 93 94  2  0
 14 10  1  0
 29 24  1  0
 61 56  2  0
 93 88  1  0
  1 95  1  0
  1 96  1  0
  1 97  1  0
  2 98  1  0
  2 99  1  0
  3100  1  1
  4101  1  0
  4102  1  0
  4103  1  0
  5104  1  6
  6105  1  6
  7106  1  0
  7107  1  0
 11108  1  0
 11109  1  0
 12110  1  0
 12111  1  0
 13112  1  0
 13113  1  0
 14114  1  6
 15115  1  1
 16116  1  1
 17117  1  0
 17118  1  0
 17119  1  0
 20120  1  0
 21121  1  6
 22122  1  0
 22123  1  0
 22124  1  0
 23125  1  6
 25126  1  0
 26127  1  0
 27128  1  0
 28129  1  0
 29130  1  0
 30131  1  0
 32132  1  0
 32133  1  0
 32134  1  0
 34135  1  0
 34136  1  0
 34137  1  0
 36138  1  0
 36139  1  0
 36140  1  0
 39141  1  1
 40142  1  0
 41143  1  0
 41144  1  0
 41145  1  0
 42146  1  0
 42147  1  0
 42148  1  0
 43149  1  0
 46150  1  1
 47151  1  0
 48152  1  0
 48153  1  0
 48154  1  0
 49155  1  0
 49156  1  0
 49157  1  0
 51158  1  0
 51159  1  0
 51160  1  0
 55161  1  0
 55162  1  0
 57163  1  0
 58164  1  0
 60165  1  0
 61166  1  0
 62167  1  0
 65168  1  6
 66169  1  0
 66170  1  0
 67171  1  0
 67172  1  0
 68173  1  0
 68174  1  0
 69175  1  0
 72176  1  0
 72177  1  0
 73178  1  0
 76179  1  1
 77180  1  0
 78181  1  0
 78182  1  0
 78183  1  0
 79184  1  0
 79185  1  0
 79186  1  0
 80187  1  0
 83188  1  0
 83189  1  0
 84190  1  0
 84191  1  0
 85192  1  0
 85193  1  0
 86194  1  0
 86195  1  0
 87196  1  0
 87197  1  0
 91198  1  0
 92199  1  0
M  END
$$$$

     RDKit          3D

199202  0  0  0  0  0  0  0  0999 V2000
   10.2214   -2.5622    0.9196 C   0  0  0  0  0  0  0  0  0  0  0  0
    9.0909   -3.5827    1.1882 C   0  0  0  0  0  0  0  0  0  0  0  0
    7.8382   -2.8132    1.2159 C   0  0  2  0  0  0  0  0  0  0  0  0
    7.8591   -1.7719    2.3230 C   0  0  0  0  0  0  0  0  0  0  0  0
    6.5301   -3.5209    1.2309 C   0  0  1  0  0  0  0  0  0  0  0  0
    6.2090   -4.4074    0.0939 C   0  0  1  0  0  0  0  0  0  0  0  0
    6.4517   -3.6879   -1.2273 C   0  0  0  0  0  0  0  0  0  0  0  0
    6.1450   -4.5493   -2.4186 C   0  0  0  0  0  0  0  0  0  0  0  0
    4.9202   -4.7931   -2.5704 O   0  0  0  0  0  0  0  0  0  0  0  0
    7.1767   -5.0165   -3.2583 N   0  0  0  0  0  0  0  0  0  0  0  0
    8.5909   -4.5942   -2.9413 C   0  0  0  0  0  0  0  0  0  0  0  0
    9.4381   -5.7295   -3.4427 C   0  0  0  0  0  0  0  0  0  0  0  0
    8.4076   -6.7842   -3.9784 C   0  0  0  0  0  0  0  0  0  0  0  0
    7.3331   -5.8358   -4.3961 C   0  0  1  0  0  0  0  0  0  0  0  0
    6.2227   -6.2767   -5.2368 C   0  0  1  0  0  0  0  0  0  0  0  0
    6.7264   -7.3705   -6.1972 C   0  0  1  0  0  0  0  0  0  0  0  0
    7.1119   -8.6668   -5.6156 C   0  0  0  0  0  0  0  0  0  0  0  0
    6.0510   -7.4431   -7.4860 C   0  0  0  0  0  0  0  0  0  0  0  0
    5.1799   -6.6899   -7.9544 O   0  0  0  0  0  0  0  0  0  0  0  0
    6.4524   -8.5439   -8.3396 N   0  0  0  0  0  0  0  0  0  0  0  0
    5.9062   -8.7748   -9.6374 C   0  0  2  0  0  0  0  0  0  0  0  0
    5.3820  -10.1843   -9.7274 C   0  0  0  0  0  0  0  0  0  0  0  0
    6.9557   -8.5681  -10.7299 C   0  0  1  0  0  0  0  0  0  0  0  0
    6.3813   -8.7995  -12.0639 C   0  0  0  0  0  0  0  0  0  0  0  0
    6.7844   -9.9642  -12.7324 C   0  0  0  0  0  0  0  0  0  0  0  0
    6.2855  -10.2539  -13.9900 C   0  0  0  0  0  0  0  0  0  0  0  0
    5.4025   -9.3779  -14.5427 C   0  0  0  0  0  0  0  0  0  0  0  0
    4.9783   -8.2149  -13.9146 C   0  0  0  0  0  0  0  0  0  0  0  0
    5.4792   -7.9218  -12.6502 C   0  0  0  0  0  0  0  0  0  0  0  0
    7.4109   -7.2378  -10.6750 O   0  0  0  0  0  0  0  0  0  0  0  0
    5.2430   -6.9875   -4.5070 O   0  0  0  0  0  0  0  0  0  0  0  0
    3.9745   -6.6481   -4.9073 C   0  0  0  0  0  0  0  0  0  0  0  0
    6.8520   -5.6139    0.0840 O   0  0  0  0  0  0  0  0  0  0  0  0
    6.0837   -6.7371    0.0537 C   0  0  0  0  0  0  0  0  0  0  0  0
    6.2062   -4.1059    2.5304 N   0  0  0  0  0  0  0  0  0  0  0  0
    6.9057   -5.3036    2.9094 C   0  0  0  0  0  0  0  0  0  0  0  0
    5.2522   -3.4132    3.2996 C   0  0  0  0  0  0  0  0  0  0  0  0
    4.8603   -2.3031    2.7115 O   0  0  0  0  0  0  0  0  0  0  0  0
    4.6288   -3.6534    4.5740 C   0  0  1  0  0  0  0  0  0  0  0  0
    5.3491   -4.2932    5.6983 C   0  0  0  0  0  0  0  0  0  0  0  0
    6.5906   -3.6077    6.1754 C   0  0  0  0  0  0  0  0  0  0  0  0
    5.5125   -5.7613    5.7018 C   0  0  0  0  0  0  0  0  0  0  0  0
    4.0750   -2.4089    5.1507 N   0  0  0  0  0  0  0  0  0  0  0  0
    2.7953   -2.2118    5.6696 C   0  0  0  0  0  0  0  0  0  0  0  0
    1.9523   -3.1737    5.6680 O   0  0  0  0  0  0  0  0  0  0  0  0
    2.4358   -0.9102    6.2217 C   0  0  1  0  0  0  0  0  0  0  0  0
    3.3520   -0.6361    7.4698 C   0  0  0  0  0  0  0  0  0  0  0  0
    3.0305    0.6943    8.0792 C   0  0  0  0  0  0  0  0  0  0  0  0
    3.1116   -1.7297    8.4892 C   0  0  0  0  0  0  0  0  0  0  0  0
    2.5402    0.2422    5.3770 N   0  0  0  0  0  0  0  0  0  0  0  0
    3.6403    0.5495    4.4896 C   0  0  0  0  0  0  0  0  0  0  0  0
    1.4340    1.1894    5.4561 C   0  0  0  0  0  0  0  0  0  0  0  0
    0.5139    1.0535    6.2969 O   0  0  0  0  0  0  0  0  0  0  0  0
    1.4514    2.2196    4.5859 O   0  0  0  0  0  0  0  0  0  0  0  0
    0.5510    3.2716    4.5111 C   0  0  0  0  0  0  0  0  0  0  0  0
   -0.8735    2.9618    4.4082 C   0  0  0  0  0  0  0  0  0  0  0  0
   -1.5451    2.6336    3.2453 C   0  0  0  0  0  0  0  0  0  0  0  0
   -2.9319    2.4530    3.3094 C   0  0  0  0  0  0  0  0  0  0  0  0
   -3.6120    2.5953    4.4847 C   0  0  0  0  0  0  0  0  0  0  0  0
   -2.9534    2.9221    5.6724 C   0  0  0  0  0  0  0  0  0  0  0  0
   -1.6090    3.0944    5.5961 C   0  0  0  0  0  0  0  0  0  0  0  0
   -5.0399    2.5019    4.6202 N   0  0  0  0  0  0  0  0  0  0  0  0
   -5.7174    3.7059    4.3472 C   0  0  0  0  0  0  0  0  0  0  0  0
   -4.9771    4.6935    3.9983 O   0  0  0  0  0  0  0  0  0  0  0  0
   -7.1565    3.9746    4.4121 C   0  0  1  0  0  0  0  0  0  0  0  0
   -7.6013    4.1794    5.8708 C   0  0  0  0  0  0  0  0  0  0  0  0
   -6.8718    5.3425    6.4892 C   0  0  0  0  0  0  0  0  0  0  0  0
   -7.2905    5.5684    7.9305 C   0  0  0  0  0  0  0  0  0  0  0  0
   -6.5614    6.7015    8.4497 N   0  0  0  0  0  0  0  0  0  0  0  0
   -6.8222    7.0848    9.8056 C   0  0  0  0  0  0  0  0  0  0  0  0
   -7.6716    6.3842   10.4212 O   0  0  0  0  0  0  0  0  0  0  0  0
   -6.1782    8.1802   10.4401 N   0  0  0  0  0  0  0  0  0  0  0  0
   -7.3774    5.3024    3.7828 N   0  0  0  0  0  0  0  0  0  0  0  0
   -8.4807    5.4684    2.9261 C   0  0  0  0  0  0  0  0  0  0  0  0
   -9.2461    4.4759    2.7720 O   0  0  0  0  0  0  0  0  0  0  0  0
   -8.7995    6.7205    2.1944 C   0  0  1  0  0  0  0  0  0  0  0  0
   -7.8465    6.7342    0.9640 C   0  0  0  0  0  0  0  0  0  0  0  0
   -6.4140    6.7145    1.4164 C   0  0  0  0  0  0  0  0  0  0  0  0
   -8.0857    8.0239    0.2396 C   0  0  0  0  0  0  0  0  0  0  0  0
  -10.1185    6.6373    1.5935 N   0  0  0  0  0  0  0  0  0  0  0  0
  -10.9610    7.7274    1.3241 C   0  0  0  0  0  0  0  0  0  0  0  0
  -10.7066    8.9281    1.5433 O   0  0  0  0  0  0  0  0  0  0  0  0
  -12.2914    7.4282    0.7131 C   0  0  0  0  0  0  0  0  0  0  0  0
  -12.8917    8.6009    0.0054 C   0  0  0  0  0  0  0  0  0  0  0  0
  -14.2679    8.1647   -0.4879 C   0  0  0  0  0  0  0  0  0  0  0  0
  -14.8989    9.2619   -1.2814 C   0  0  0  0  0  0  0  0  0  0  0  0
  -15.0348   10.5399   -0.5047 C   0  0  0  0  0  0  0  0  0  0  0  0
  -15.6546   11.5418   -1.3641 N   0  0  0  0  0  0  0  0  0  0  0  0
  -14.9865   12.4496   -2.2446 C   0  0  0  0  0  0  0  0  0  0  0  0
  -13.7335   12.5385   -2.4319 O   0  0  0  0  0  0  0  0  0  0  0  0
  -15.9486   13.2914   -2.9274 C   0  0  0  0  0  0  0  0  0  0  0  0
  -17.1485   12.9181   -2.4856 C   0  0  0  0  0  0  0  0  0  0  0  0
  -17.0417   11.8444   -1.5201 C   0  0  0  0  0  0  0  0  0  0  0  0
  -17.9669   11.2357   -0.8879 O   0  0  0  0  0  0  0  0  0  0  0  0
   10.7235   -2.2483    1.8534 H   0  0  0  0  0  0  0  0  0  0  0  0
   11.0035   -2.9879    0.2631 H   0  0  0  0  0  0  0  0  0  0  0  0
    9.8140   -1.6213    0.4862 H   0  0  0  0  0  0  0  0  0  0  0  0
    9.3878   -4.0179    2.1762 H   0  0  0  0  0  0  0  0  0  0  0  0
    9.2020   -4.3753    0.4604 H   0  0  0  0  0  0  0  0  0  0  0  0
    7.8307   -2.1755    0.2767 H   0  0  0  0  0  0  0  0  0  0  0  0
    7.1579   -0.9652    2.0181 H   0  0  0  0  0  0  0  0  0  0  0  0
    7.6638   -2.1822    3.3066 H   0  0  0  0  0  0  0  0  0  0  0  0
    8.8769   -1.2913    2.3545 H   0  0  0  0  0  0  0  0  0  0  0  0
    5.7867   -2.6413    1.1766 H   0  0  0  0  0  0  0  0  0  0  0  0
    5.0765   -4.5551    0.0811 H   0  0  0  0  0  0  0  0  0  0  0  0
    5.6852   -2.8572   -1.2600 H   0  0  0  0  0  0  0  0  0  0  0  0
    7.4083   -3.1952   -1.3155 H   0  0  0  0  0  0  0  0  0  0  0  0
    8.7448   -3.6772   -3.5080 H   0  0  0  0  0  0  0  0  0  0  0  0
    8.7475   -4.5346   -1.8659 H   0  0  0  0  0  0  0  0  0  0  0  0
   10.0994   -6.1863   -2.7097 H   0  0  0  0  0  0  0  0  0  0  0  0
   10.0085   -5.4416   -4.3727 H   0  0  0  0  0  0  0  0  0  0  0  0
    8.1196   -7.3324   -3.0670 H   0  0  0  0  0  0  0  0  0  0  0  0
    8.9080   -7.3437   -4.7675 H   0  0  0  0  0  0  0  0  0  0  0  0
    7.9307   -5.1246   -5.1366 H   0  0  0  0  0  0  0  0  0  0  0  0
    5.8149   -5.5214   -5.8833 H   0  0  0  0  0  0  0  0  0  0  0  0
    7.7934   -6.9444   -6.5434 H   0  0  0  0  0  0  0  0  0  0  0  0
    8.0941   -9.0692   -5.9630 H   0  0  0  0  0  0  0  0  0  0  0  0
    6.4099   -9.5072   -6.0377 H   0  0  0  0  0  0  0  0  0  0  0  0
    7.0810   -8.7663   -4.5183 H   0  0  0  0  0  0  0  0  0  0  0  0
    7.1929   -9.2323   -8.0065 H   0  0  0  0  0  0  0  0  0  0  0  0
    5.1294   -8.0082   -9.8368 H   0  0  0  0  0  0  0  0  0  0  0  0
    6.0769  -10.8720  -10.2680 H   0  0  0  0  0  0  0  0  0  0  0  0
    4.3697  -10.1543  -10.1697 H   0  0  0  0  0  0  0  0  0  0  0  0
    5.2413  -10.6316   -8.7122 H   0  0  0  0  0  0  0  0  0  0  0  0
    7.8409   -9.1972  -10.5574 H   0  0  0  0  0  0  0  0  0  0  0  0
    7.5012  -10.6576  -12.2613 H   0  0  0  0  0  0  0  0  0  0  0  0
    6.5864  -11.1491  -14.5212 H   0  0  0  0  0  0  0  0  0  0  0  0
    4.9799   -9.5574  -15.5246 H   0  0  0  0  0  0  0  0  0  0  0  0
    4.2661   -7.5426  -14.3936 H   0  0  0  0  0  0  0  0  0  0  0  0
    5.1944   -7.0331  -12.1030 H   0  0  0  0  0  0  0  0  0  0  0  0
    7.9369   -7.0009  -11.4655 H   0  0  0  0  0  0  0  0  0  0  0  0
    3.8215   -5.5579   -4.8313 H   0  0  0  0  0  0  0  0  0  0  0  0
    3.2178   -7.0376   -4.1256 H   0  0  0  0  0  0  0  0  0  0  0  0
    3.6552   -6.9797   -5.8975 H   0  0  0  0  0  0  0  0  0  0  0  0
    6.6687   -7.6837    0.0672 H   0  0  0  0  0  0  0  0  0  0  0  0
    5.4184   -6.7604    0.9388 H   0  0  0  0  0  0  0  0  0  0  0  0
    5.3934   -6.7014   -0.8138 H   0  0  0  0  0  0  0  0  0  0  0  0
    6.2819   -6.1809    3.0461 H   0  0  0  0  0  0  0  0  0  0  0  0
    7.6865   -5.5957    2.1739 H   0  0  0  0  0  0  0  0  0  0  0  0
    7.5199   -5.0075    3.8119 H   0  0  0  0  0  0  0  0  0  0  0  0
    3.6988   -4.2831    4.4141 H   0  0  0  0  0  0  0  0  0  0  0  0
    4.6100   -4.1131    6.5969 H   0  0  0  0  0  0  0  0  0  0  0  0
    7.1674   -4.2670    6.8939 H   0  0  0  0  0  0  0  0  0  0  0  0
    6.3126   -2.7169    6.7809 H   0  0  0  0  0  0  0  0  0  0  0  0
    7.2343   -3.2287    5.3748 H   0  0  0  0  0  0  0  0  0  0  0  0
    4.8948   -6.2957    4.9501 H   0  0  0  0  0  0  0  0  0  0  0  0
    5.1409   -6.1865    6.6840 H   0  0  0  0  0  0  0  0  0  0  0  0
    6.5862   -6.0447    5.7000 H   0  0  0  0  0  0  0  0  0  0  0  0
    4.7936   -1.6223    5.1504 H   0  0  0  0  0  0  0  0  0  0  0  0
    1.4487   -0.9188    6.7018 H   0  0  0  0  0  0  0  0  0  0  0  0
    4.4082   -0.6631    7.1834 H   0  0  0  0  0  0  0  0  0  0  0  0
    3.7524    0.8720    8.9078 H   0  0  0  0  0  0  0  0  0  0  0  0
    2.0322    0.6710    8.5654 H   0  0  0  0  0  0  0  0  0  0  0  0
    3.1408    1.5205    7.3670 H   0  0  0  0  0  0  0  0  0  0  0  0
    2.3380   -2.4537    8.1090 H   0  0  0  0  0  0  0  0  0  0  0  0
    2.6833   -1.2984    9.4363 H   0  0  0  0  0  0  0  0  0  0  0  0
    4.0000   -2.3240    8.7208 H   0  0  0  0  0  0  0  0  0  0  0  0
    4.6085    0.6624    4.9876 H   0  0  0  0  0  0  0  0  0  0  0  0
    3.3597    1.5224    3.9634 H   0  0  0  0  0  0  0  0  0  0  0  0
    3.6016   -0.1976    3.6862 H   0  0  0  0  0  0  0  0  0  0  0  0
    0.6985    3.9961    5.3608 H   0  0  0  0  0  0  0  0  0  0  0  0
    0.7739    3.9130    3.5966 H   0  0  0  0  0  0  0  0  0  0  0  0
   -0.9813    2.5291    2.3439 H   0  0  0  0  0  0  0  0  0  0  0  0
   -3.4859    2.1949    2.4173 H   0  0  0  0  0  0  0  0  0  0  0  0
   -3.4925    3.0334    6.6088 H   0  0  0  0  0  0  0  0  0  0  0  0
   -1.0922    3.3485    6.5385 H   0  0  0  0  0  0  0  0  0  0  0  0
   -5.5642    1.6688    4.8857 H   0  0  0  0  0  0  0  0  0  0  0  0
   -7.7869    3.2603    3.9131 H   0  0  0  0  0  0  0  0  0  0  0  0
   -7.4774    3.2485    6.4345 H   0  0  0  0  0  0  0  0  0  0  0  0
   -8.6811    4.4171    5.8266 H   0  0  0  0  0  0  0  0  0  0  0  0
   -7.0958    6.2826    5.9511 H   0  0  0  0  0  0  0  0  0  0  0  0
   -5.8016    5.1489    6.4366 H   0  0  0  0  0  0  0  0  0  0  0  0
   -8.3672    5.8250    7.9789 H   0  0  0  0  0  0  0  0  0  0  0  0
   -7.0436    4.6841    8.5626 H   0  0  0  0  0  0  0  0  0  0  0  0
   -5.8598    7.2533    7.9126 H   0  0  0  0  0  0  0  0  0  0  0  0
   -5.4420    7.9556   11.1498 H   0  0  0  0  0  0  0  0  0  0  0  0
   -6.3990    9.1810   10.2427 H   0  0  0  0  0  0  0  0  0  0  0  0
   -6.7335    6.0986    3.9724 H   0  0  0  0  0  0  0  0  0  0  0  0
   -8.5596    7.6120    2.7353 H   0  0  0  0  0  0  0  0  0  0  0  0
   -8.0808    5.8323    0.3866 H   0  0  0  0  0  0  0  0  0  0  0  0
   -5.8042    6.9453    0.4914 H   0  0  0  0  0  0  0  0  0  0  0  0
   -6.0853    5.7079    1.7167 H   0  0  0  0  0  0  0  0  0  0  0  0
   -6.1831    7.5072    2.1429 H   0  0  0  0  0  0  0  0  0  0  0  0
   -9.0151    7.9971   -0.3648 H   0  0  0  0  0  0  0  0  0  0  0  0
   -8.0607    8.8473    0.9733 H   0  0  0  0  0  0  0  0  0  0  0  0
   -7.1858    8.1595   -0.4399 H   0  0  0  0  0  0  0  0  0  0  0  0
  -10.4358    5.6535    1.3510 H   0  0  0  0  0  0  0  0  0  0  0  0
  -12.9742    7.2013    1.5812 H   0  0  0  0  0  0  0  0  0  0  0  0
  -12.2896    6.4984    0.1201 H   0  0  0  0  0  0  0  0  0  0  0  0
  -13.0037    9.4367    0.7174 H   0  0  0  0  0  0  0  0  0  0  0  0
  -12.2667    8.9244   -0.8699 H   0  0  0  0  0  0  0  0  0  0  0  0
  -14.2500    7.2123   -1.0448 H   0  0  0  0  0  0  0  0  0  0  0  0
  -14.9297    7.9763    0.4064 H   0  0  0  0  0  0  0  0  0  0  0  0
  -15.9541    8.9537   -1.5546 H   0  0  0  0  0  0  0  0  0  0  0  0
  -14.3272    9.4943   -2.2186 H   0  0  0  0  0  0  0  0  0  0  0  0
  -14.0067   10.9132   -0.2177 H   0  0  0  0  0  0  0  0  0  0  0  0
  -15.6557   10.4215    0.3880 H   0  0  0  0  0  0  0  0  0  0  0  0
  -15.7584   14.0863   -3.6654 H   0  0  0  0  0  0  0  0  0  0  0  0
  -18.1057   13.3467   -2.7933 H   0  0  0  0  0  0  0  0  0  0  0  0
  1  2  1  0
  2  3  1  0
  3  4  1  0
  3  5  1  0
  5  6  1  0
  6  7  1  0
  7  8  1  0
  8  9  2  0
  8 10  1  0
 10 11  1  0
 11 12  1  0
 12 13  1  0
 13 14  1  0
 14 15  1  0
 15 16  1  0
 16 17  1  0
 16 18  1  0
 18 19  2  0
 18 20  1  0
 20 21  1  0
 21 22  1  0
 21 23  1  0
 23 24  1  0
 24 25  2  0
 25 26  1  0
 26 27  2  0
 27 28  1  0
 28 29  2  0
 23 30  1  0
 15 31  1  0
 31 32  1  0
  6 33  1  0
 33 34  1  0
  5 35  1  0
 35 36  1  0
 35 37  1  0
 37 38  2  0
 37 39  1  0
 39 40  1  0
 40 41  1  0
 40 42  1  0
 39 43  1  0
 43 44  1  0
 44 45  2  0
 44 46  1  0
 46 47  1  0
 47 48  1  0
 47 49  1  0
 46 50  1  0
 50 51  1  0
 50 52  1  0
 52 53  2  0
 52 54  1  0
 54 55  1  0
 55 56  1  0
 56 57  1  0
 57 58  2  0
 58 59  1  0
 59 60  2  0
 60 61  1  0
 59 62  1  0
 62 63  1  0
 63 64  2  0
 63 65  1  0
 65 66  1  0
 66 67  1  0
 67 68  1  0
 68 69  1  0
 69 70  1  0
 70 71  2  0
 70 72  1  0
 65 73  1  0
 73 74  1  0
 74 75  2  0
 74 76  1  0
 76 77  1  0
 77 78  1  0
 77 79  1  0
 76 80  1  0
 80 81  1  0
 81 82  2  0
 81 83  1  0
 83 84  1  0
 84 85  1  0
 85 86  1  0
 86 87  1  0
 87 88  1  0
 88 89  1  0
 89 90  2  0
 89 91  1  0
 91 92  2  0
 92 93  1  0
 93 94  2  0
 14 10  1  0
 29 24  1  0
 61 56  2  0
 93 88  1  0
  1 95  1  0
  1 96  1  0
  1 97  1  0
  2 98  1  0
  2 99  1  0
  3100  1  6
  4101  1  0
  4102  1  0
  4103  1  0
  5104  1  6
  6105  1  1
  7106  1  0
  7107  1  0
 11108  1  0
 11109  1  0
 12110  1  0
 12111  1  0
 13112  1  0
 13113  1  0
 14114  1  6
 15115  1  6
 16116  1  6
 17117  1  0
 17118  1  0
 17119  1  0
 20120  1  0
 21121  1  6
 22122  1  0
 22123  1  0
 22124  1  0
 23125  1  1
 25126  1  0
 26127  1  0
 27128  1  0
 28129  1  0
 29130  1  0
 30131  1  0
 32132  1  0
 32133  1  0
 32134  1  0
 34135  1  0
 34136  1  0
 34137  1  0
 36138  1  0
 36139  1  0
 36140  1  0
 39141  1  6
 40142  1  0
 41143  1  0
 41144  1  0
 41145  1  0
 42146  1  0
 42147  1  0
 42148  1  0
 43149  1  0
 46150  1  1
 47151  1  0
 48152  1  0
 48153  1  0
 48154  1  0
 49155  1  0
 49156  1  0
 49157  1  0
 51158  1  0
 51159  1  0
 51160  1  0
 55161  1  0
 55162  1  0
 57163  1  0
 58164  1  0
 60165  1  0
 61166  1  0
 62167  1  0
 65168  1  6
 66169  1  0
 66170  1  0
 67171  1  0
 67172  1  0
 68173  1  0
 68174  1  0
 69175  1  0
 72176  1  0
 72177  1  0
 73178  1  0
 76179  1  1
 77180  1  0
 78181  1  0
 78182  1  0
 78183  1  0
 79184  1  0
 79185  1  0
 79186  1  0
 80187  1  0
 83188  1  0
 83189  1  0
 84190  1  0
 84191  1  0
 85192  1  0
 85193  1  0
 86194  1  0
 86195  1  0
 87196  1  0
 87197  1  0
 91198  1  0
 92199  1  0
M  END
$$$$

     RDKit          3D

199202  0  0  0  0  0  0  0  0999 V2000
    0.0077    0.0656   -7.9775 C   0  0  0  0  0  0  0  0  0  0  0  0
   -1.3297   -0.4135   -7.4497 C   0  0  0  0  0  0  0  0  0  0  0  0
   -1.1592   -0.9489   -6.0120 C   0  0  2  0  0  0  0  0  0  0  0  0
   -0.2226   -2.0837   -5.9844 C   0  0  0  0  0  0  0  0  0  0  0  0
   -2.4318   -0.9576   -5.3034 C   0  0  1  0  0  0  0  0  0  0  0  0
   -3.5936   -1.7825   -5.7976 C   0  0  1  0  0  0  0  0  0  0  0  0
   -4.8939   -1.0150   -5.4903 C   0  0  0  0  0  0  0  0  0  0  0  0
   -6.1298   -1.6548   -5.8818 C   0  0  0  0  0  0  0  0  0  0  0  0
   -6.3266   -2.8524   -6.1573 O   0  0  0  0  0  0  0  0  0  0  0  0
   -7.3116   -0.8074   -5.9800 N   0  0  0  0  0  0  0  0  0  0  0  0
   -7.2271    0.6067   -5.6699 C   0  0  0  0  0  0  0  0  0  0  0  0
   -8.6439    0.8533   -5.1943 C   0  0  0  0  0  0  0  0  0  0  0  0
   -9.4844   -0.0129   -6.1523 C   0  0  0  0  0  0  0  0  0  0  0  0
   -8.6478   -1.2083   -6.3912 C   0  0  1  0  0  0  0  0  0  0  0  0
   -8.6825   -1.8528   -7.7169 C   0  0  1  0  0  0  0  0  0  0  0  0
  -10.0227   -2.4040   -8.1237 C   0  0  1  0  0  0  0  0  0  0  0  0
  -10.5811   -3.4001   -7.1168 C   0  0  0  0  0  0  0  0  0  0  0  0
  -10.9794   -1.5391   -8.7679 C   0  0  0  0  0  0  0  0  0  0  0  0
  -11.0149   -1.6250  -10.0844 O   0  0  0  0  0  0  0  0  0  0  0  0
  -11.8931   -0.6161   -8.2664 N   0  0  0  0  0  0  0  0  0  0  0  0
  -12.7397    0.1405   -9.1362 C   0  0  2  0  0  0  0  0  0  0  0  0
  -12.1725    1.5742   -9.3083 C   0  0  0  0  0  0  0  0  0  0  0  0
  -14.1778    0.2277   -8.7467 C   0  0  1  0  0  0  0  0  0  0  0  0
  -14.8646    0.9165   -9.9118 C   0  0  0  0  0  0  0  0  0  0  0  0
  -15.0525    0.1466  -11.0572 C   0  0  0  0  0  0  0  0  0  0  0  0
  -15.6773    0.7358  -12.1611 C   0  0  0  0  0  0  0  0  0  0  0  0
  -16.1013    2.0704  -12.1062 C   0  0  0  0  0  0  0  0  0  0  0  0
  -15.8955    2.8056  -10.9409 C   0  0  0  0  0  0  0  0  0  0  0  0
  -15.2754    2.2227   -9.8465 C   0  0  0  0  0  0  0  0  0  0  0  0
  -14.7855   -1.0074   -8.6567 O   0  0  0  0  0  0  0  0  0  0  0  0
   -8.2043   -1.0167   -8.7458 O   0  0  0  0  0  0  0  0  0  0  0  0
   -7.1320   -1.6365   -9.3700 C   0  0  0  0  0  0  0  0  0  0  0  0
   -3.6387   -1.9672   -7.1569 O   0  0  0  0  0  0  0  0  0  0  0  0
   -3.5323   -3.2918   -7.5368 C   0  0  0  0  0  0  0  0  0  0  0  0
   -2.3643   -0.8429   -3.8448 N   0  0  0  0  0  0  0  0  0  0  0  0
   -2.6452    0.3988   -3.1448 C   0  0  0  0  0  0  0  0  0  0  0  0
   -1.9518   -1.9477   -3.0427 C   0  0  0  0  0  0  0  0  0  0  0  0
   -1.6122   -3.0444   -3.6023 O   0  0  0  0  0  0  0  0  0  0  0  0
   -1.8641   -1.9464   -1.5690 C   0  0  1  0  0  0  0  0  0  0  0  0
   -3.1178   -2.5405   -0.9077 C   0  0  0  0  0  0  0  0  0  0  0  0
   -4.3810   -1.8146   -1.2425 C   0  0  0  0  0  0  0  0  0  0  0  0
   -3.2379   -4.0343   -1.2010 C   0  0  0  0  0  0  0  0  0  0  0  0
   -0.8579   -3.0292   -1.2891 N   0  0  0  0  0  0  0  0  0  0  0  0
    0.2948   -2.7522   -0.5107 C   0  0  0  0  0  0  0  0  0  0  0  0
    0.3902   -1.5560   -0.0772 O   0  0  0  0  0  0  0  0  0  0  0  0
    1.3493   -3.7194   -0.1821 C   0  0  1  0  0  0  0  0  0  0  0  0
    2.1414   -4.1957   -1.4129 C   0  0  0  0  0  0  0  0  0  0  0  0
    1.2761   -4.8855   -2.4020 C   0  0  0  0  0  0  0  0  0  0  0  0
    3.1622   -5.1966   -0.8854 C   0  0  0  0  0  0  0  0  0  0  0  0
    2.2849   -3.2903    0.8137 N   0  0  0  0  0  0  0  0  0  0  0  0
    2.4562   -4.1404    2.0084 C   0  0  0  0  0  0  0  0  0  0  0  0
    3.0695   -2.1133    0.7678 C   0  0  0  0  0  0  0  0  0  0  0  0
    2.9780   -1.2482   -0.1465 O   0  0  0  0  0  0  0  0  0  0  0  0
    4.0065   -1.8605    1.7655 O   0  0  0  0  0  0  0  0  0  0  0  0
    4.7597   -0.6778    1.7197 C   0  0  0  0  0  0  0  0  0  0  0  0
    5.7671   -0.5890    2.7925 C   0  0  0  0  0  0  0  0  0  0  0  0
    5.5636   -0.1490    4.0693 C   0  0  0  0  0  0  0  0  0  0  0  0
    6.6327   -0.1139    4.9788 C   0  0  0  0  0  0  0  0  0  0  0  0
    7.8927   -0.4977    4.6672 C   0  0  0  0  0  0  0  0  0  0  0  0
    8.0874   -0.9463    3.3524 C   0  0  0  0  0  0  0  0  0  0  0  0
    7.0641   -0.9950    2.4369 C   0  0  0  0  0  0  0  0  0  0  0  0
    9.0133   -0.5485    5.5153 N   0  0  0  0  0  0  0  0  0  0  0  0
    9.0110   -0.3775    6.9221 C   0  0  0  0  0  0  0  0  0  0  0  0
    7.9630   -0.1522    7.5521 O   0  0  0  0  0  0  0  0  0  0  0  0
   10.3670   -0.4981    7.5993 C   0  0  1  0  0  0  0  0  0  0  0  0
   11.3906    0.4078    7.0045 C   0  0  0  0  0  0  0  0  0  0  0  0
   11.1006    1.8656    7.0672 C   0  0  0  0  0  0  0  0  0  0  0  0
   12.2543    2.6121    6.3790 C   0  0  0  0  0  0  0  0  0  0  0  0
   12.0337    4.0404    6.4356 N   0  0  0  0  0  0  0  0  0  0  0  0
   10.9089    4.6930    5.8698 C   0  0  0  0  0  0  0  0  0  0  0  0
   10.0031    4.0649    5.2586 O   0  0  0  0  0  0  0  0  0  0  0  0
   10.7454    6.1152    5.9690 N   0  0  0  0  0  0  0  0  0  0  0  0
   10.2803   -0.5031    9.0201 N   0  0  0  0  0  0  0  0  0  0  0  0
    9.6022    0.3873    9.8620 C   0  0  0  0  0  0  0  0  0  0  0  0
    8.9634    1.3745    9.3347 O   0  0  0  0  0  0  0  0  0  0  0  0
    9.5215    0.3362   11.3332 C   0  0  1  0  0  0  0  0  0  0  0  0
   10.7962    0.1912   12.0909 C   0  0  0  0  0  0  0  0  0  0  0  0
   10.3718    0.2180   13.5890 C   0  0  0  0  0  0  0  0  0  0  0  0
   11.4919   -1.1398   11.9403 C   0  0  0  0  0  0  0  0  0  0  0  0
    8.8309    1.5030   11.8676 N   0  0  0  0  0  0  0  0  0  0  0  0
    7.4348    1.5604   12.1022 C   0  0  0  0  0  0  0  0  0  0  0  0
    6.7104    0.5728   11.8395 O   0  0  0  0  0  0  0  0  0  0  0  0
    6.9214    2.8419   12.6602 C   0  0  0  0  0  0  0  0  0  0  0  0
    5.4261    2.9795   12.3699 C   0  0  0  0  0  0  0  0  0  0  0  0
    5.2226    2.9969   10.8739 C   0  0  0  0  0  0  0  0  0  0  0  0
    3.8149    3.1757   10.4177 C   0  0  0  0  0  0  0  0  0  0  0  0
    3.2274    4.4918   10.9039 C   0  0  0  0  0  0  0  0  0  0  0  0
    1.8903    4.5867   10.3893 N   0  0  0  0  0  0  0  0  0  0  0  0
    0.6491    4.1612   10.9350 C   0  0  0  0  0  0  0  0  0  0  0  0
    0.5217    3.5844   12.0546 O   0  0  0  0  0  0  0  0  0  0  0  0
   -0.4127    4.5038    9.9914 C   0  0  0  0  0  0  0  0  0  0  0  0
    0.1107    5.1065    8.9167 C   0  0  0  0  0  0  0  0  0  0  0  0
    1.5729    5.1779    9.1322 C   0  0  0  0  0  0  0  0  0  0  0  0
    2.3598    5.6890    8.3033 O   0  0  0  0  0  0  0  0  0  0  0  0
    0.7633    0.1056   -7.1541 H   0  0  0  0  0  0  0  0  0  0  0  0
   -0.1106    1.1058   -8.3405 H   0  0  0  0  0  0  0  0  0  0  0  0
    0.3677   -0.6109   -8.7869 H   0  0  0  0  0  0  0  0  0  0  0  0
   -1.7165   -1.1799   -8.1148 H   0  0  0  0  0  0  0  0  0  0  0  0
   -2.0225    0.4497   -7.4433 H   0  0  0  0  0  0  0  0  0  0  0  0
   -0.5733   -0.0628   -5.5324 H   0  0  0  0  0  0  0  0  0  0  0  0
    0.4236   -2.0311   -5.0547 H   0  0  0  0  0  0  0  0  0  0  0  0
   -0.5996   -3.0913   -6.0526 H   0  0  0  0  0  0  0  0  0  0  0  0
    0.5711   -1.8887   -6.7935 H   0  0  0  0  0  0  0  0  0  0  0  0
   -2.8359    0.1332   -5.5561 H   0  0  0  0  0  0  0  0  0  0  0  0
   -3.5508   -2.7350   -5.2777 H   0  0  0  0  0  0  0  0  0  0  0  0
   -4.7925   -0.0614   -6.1077 H   0  0  0  0  0  0  0  0  0  0  0  0
   -4.8534   -0.6588   -4.4587 H   0  0  0  0  0  0  0  0  0  0  0  0
   -6.9629    1.2272   -6.5459 H   0  0  0  0  0  0  0  0  0  0  0  0
   -6.5410    0.7201   -4.8128 H   0  0  0  0  0  0  0  0  0  0  0  0
   -8.9752    1.8984   -5.2811 H   0  0  0  0  0  0  0  0  0  0  0  0
   -8.7610    0.4858   -4.1584 H   0  0  0  0  0  0  0  0  0  0  0  0
  -10.4107   -0.2378   -5.5604 H   0  0  0  0  0  0  0  0  0  0  0  0
   -9.6753    0.5192   -7.0948 H   0  0  0  0  0  0  0  0  0  0  0  0
   -8.8920   -2.0342   -5.6384 H   0  0  0  0  0  0  0  0  0  0  0  0
   -7.9862   -2.7295   -7.7332 H   0  0  0  0  0  0  0  0  0  0  0  0
   -9.6879   -3.1756   -8.9660 H   0  0  0  0  0  0  0  0  0  0  0  0
  -11.2434   -4.1614   -7.5916 H   0  0  0  0  0  0  0  0  0  0  0  0
  -11.1865   -2.9124   -6.3227 H   0  0  0  0  0  0  0  0  0  0  0  0
   -9.7333   -3.9821   -6.7003 H   0  0  0  0  0  0  0  0  0  0  0  0
  -11.9832   -0.4919   -7.2476 H   0  0  0  0  0  0  0  0  0  0  0  0
  -12.6876   -0.2541  -10.1818 H   0  0  0  0  0  0  0  0  0  0  0  0
  -11.1835    1.4129   -9.8311 H   0  0  0  0  0  0  0  0  0  0  0  0
  -12.8076    2.0513  -10.0727 H   0  0  0  0  0  0  0  0  0  0  0  0
  -12.0941    2.0932   -8.3533 H   0  0  0  0  0  0  0  0  0  0  0  0
  -14.3770    0.8631   -7.8821 H   0  0  0  0  0  0  0  0  0  0  0  0
  -14.7279   -0.8911  -11.1178 H   0  0  0  0  0  0  0  0  0  0  0  0
  -15.8496    0.1825  -13.0794 H   0  0  0  0  0  0  0  0  0  0  0  0
  -16.5815    2.5025  -12.9797 H   0  0  0  0  0  0  0  0  0  0  0  0
  -16.2409    3.8347  -10.9461 H   0  0  0  0  0  0  0  0  0  0  0  0
  -15.1254    2.8075   -8.9536 H   0  0  0  0  0  0  0  0  0  0  0  0
  -15.3929   -1.0809   -7.8690 H   0  0  0  0  0  0  0  0  0  0  0  0
   -6.7505   -0.9841  -10.2164 H   0  0  0  0  0  0  0  0  0  0  0  0
   -7.3689   -2.6464   -9.7551 H   0  0  0  0  0  0  0  0  0  0  0  0
   -6.2579   -1.7290   -8.6968 H   0  0  0  0  0  0  0  0  0  0  0  0
   -3.6207   -3.4124   -8.6516 H   0  0  0  0  0  0  0  0  0  0  0  0
   -2.4343   -3.5694   -7.3785 H   0  0  0  0  0  0  0  0  0  0  0  0
   -4.1362   -3.9774   -6.9498 H   0  0  0  0  0  0  0  0  0  0  0  0
   -1.8834    0.5166   -2.3164 H   0  0  0  0  0  0  0  0  0  0  0  0
   -3.6668    0.5201   -2.7836 H   0  0  0  0  0  0  0  0  0  0  0  0
   -2.4441    1.2854   -3.7965 H   0  0  0  0  0  0  0  0  0  0  0  0
   -1.4828   -1.0622   -1.0939 H   0  0  0  0  0  0  0  0  0  0  0  0
   -3.0003   -2.4683    0.2145 H   0  0  0  0  0  0  0  0  0  0  0  0
   -5.2911   -2.4700   -1.0511 H   0  0  0  0  0  0  0  0  0  0  0  0
   -4.4802   -1.6353   -2.3499 H   0  0  0  0  0  0  0  0  0  0  0  0
   -4.5768   -0.9181   -0.6292 H   0  0  0  0  0  0  0  0  0  0  0  0
   -2.5724   -4.5604   -0.4922 H   0  0  0  0  0  0  0  0  0  0  0  0
   -3.0016   -4.2952   -2.2349 H   0  0  0  0  0  0  0  0  0  0  0  0
   -4.2793   -4.3149   -0.9145 H   0  0  0  0  0  0  0  0  0  0  0  0
   -1.0368   -3.9751   -1.6727 H   0  0  0  0  0  0  0  0  0  0  0  0
    0.8759   -4.6831    0.1802 H   0  0  0  0  0  0  0  0  0  0  0  0
    2.6279   -3.3414   -1.9095 H   0  0  0  0  0  0  0  0  0  0  0  0
    0.6239   -5.6126   -1.8569 H   0  0  0  0  0  0  0  0  0  0  0  0
    0.7754   -4.2653   -3.1428 H   0  0  0  0  0  0  0  0  0  0  0  0
    1.9748   -5.5456   -3.0142 H   0  0  0  0  0  0  0  0  0  0  0  0
    2.6397   -6.1101   -0.5212 H   0  0  0  0  0  0  0  0  0  0  0  0
    3.8703   -5.5190   -1.6800 H   0  0  0  0  0  0  0  0  0  0  0  0
    3.7416   -4.8017   -0.0190 H   0  0  0  0  0  0  0  0  0  0  0  0
    3.5350   -4.0956    2.2651 H   0  0  0  0  0  0  0  0  0  0  0  0
    1.7849   -3.8165    2.8142 H   0  0  0  0  0  0  0  0  0  0  0  0
    2.2164   -5.1973    1.7742 H   0  0  0  0  0  0  0  0  0  0  0  0
    4.0403    0.1598    1.8258 H   0  0  0  0  0  0  0  0  0  0  0  0
    5.1981   -0.6102    0.7104 H   0  0  0  0  0  0  0  0  0  0  0  0
    4.5728    0.1571    4.3419 H   0  0  0  0  0  0  0  0  0  0  0  0
    6.4121    0.2452    5.9666 H   0  0  0  0  0  0  0  0  0  0  0  0
    9.0686   -1.2786    3.0084 H   0  0  0  0  0  0  0  0  0  0  0  0
    7.2830   -1.3550    1.4322 H   0  0  0  0  0  0  0  0  0  0  0  0
    9.9556   -0.7275    5.0813 H   0  0  0  0  0  0  0  0  0  0  0  0
   10.6513   -1.5589    7.2776 H   0  0  0  0  0  0  0  0  0  0  0  0
   11.5910    0.1060    5.9535 H   0  0  0  0  0  0  0  0  0  0  0  0
   12.3349    0.2322    7.5510 H   0  0  0  0  0  0  0  0  0  0  0  0
   10.1862    2.1647    6.5502 H   0  0  0  0  0  0  0  0  0  0  0  0
   11.1736    2.2523    8.1282 H   0  0  0  0  0  0  0  0  0  0  0  0
   13.2120    2.3952    6.8591 H   0  0  0  0  0  0  0  0  0  0  0  0
   12.3621    2.2642    5.3165 H   0  0  0  0  0  0  0  0  0  0  0  0
   12.7312    4.6842    6.9173 H   0  0  0  0  0  0  0  0  0  0  0  0
   11.5912    6.7289    5.8298 H   0  0  0  0  0  0  0  0  0  0  0  0
    9.8154    6.5354    6.1766 H   0  0  0  0  0  0  0  0  0  0  0  0
   10.7958   -1.3027    9.5126 H   0  0  0  0  0  0  0  0  0  0  0  0
    8.8405   -0.5487   11.5472 H   0  0  0  0  0  0  0  0  0  0  0  0
   11.4650    1.0447   11.9760 H   0  0  0  0  0  0  0  0  0  0  0  0
   11.2979    0.0444   14.1689 H   0  0  0  0  0  0  0  0  0  0  0  0
    9.9671    1.1994   13.8736 H   0  0  0  0  0  0  0  0  0  0  0  0
    9.7010   -0.6359   13.7933 H   0  0  0  0  0  0  0  0  0  0  0  0
   12.3322   -1.1365   11.2391 H   0  0  0  0  0  0  0  0  0  0  0  0
   10.8016   -1.9656   11.7472 H   0  0  0  0  0  0  0  0  0  0  0  0
   11.9704   -1.3717   12.9493 H   0  0  0  0  0  0  0  0  0  0  0  0
    9.4465    2.3316   12.0776 H   0  0  0  0  0  0  0  0  0  0  0  0
    7.3835    3.7352   12.2427 H   0  0  0  0  0  0  0  0  0  0  0  0
    7.0367    2.8943   13.7607 H   0  0  0  0  0  0  0  0  0  0  0  0
    4.8559    2.1184   12.7937 H   0  0  0  0  0  0  0  0  0  0  0  0
    5.1048    3.9018   12.8690 H   0  0  0  0  0  0  0  0  0  0  0  0
    5.5713    2.0228   10.4760 H   0  0  0  0  0  0  0  0  0  0  0  0
    5.8828    3.8104   10.4536 H   0  0  0  0  0  0  0  0  0  0  0  0
    3.1518    2.3827   10.8083 H   0  0  0  0  0  0  0  0  0  0  0  0
    3.8234    3.2433    9.3131 H   0  0  0  0  0  0  0  0  0  0  0  0
    3.2705    4.4712   12.0164 H   0  0  0  0  0  0  0  0  0  0  0  0
    3.8438    5.2970   10.4702 H   0  0  0  0  0  0  0  0  0  0  0  0
   -1.4785    4.3240   10.0941 H   0  0  0  0  0  0  0  0  0  0  0  0
   -0.4337    5.4796    8.0355 H   0  0  0  0  0  0  0  0  0  0  0  0
  1  2  1  0
  2  3  1  0
  3  4  1  0
  3  5  1  0
  5  6  1  0
  6  7  1  0
  7  8  1  0
  8  9  2  0
  8 10  1  0
 10 11  1  0
 11 12  1  0
 12 13  1  0
 13 14  1  0
 14 15  1  0
 15 16  1  0
 16 17  1  0
 16 18  1  0
 18 19  2  0
 18 20  1  0
 20 21  1  0
 21 22  1  0
 21 23  1  0
 23 24  1  0
 24 25  2  0
 25 26  1  0
 26 27  2  0
 27 28  1  0
 28 29  2  0
 23 30  1  0
 15 31  1  0
 31 32  1  0
  6 33  1  0
 33 34  1  0
  5 35  1  0
 35 36  1  0
 35 37  1  0
 37 38  2  0
 37 39  1  0
 39 40  1  0
 40 41  1  0
 40 42  1  0
 39 43  1  0
 43 44  1  0
 44 45  2  0
 44 46  1  0
 46 47  1  0
 47 48  1  0
 47 49  1  0
 46 50  1  0
 50 51  1  0
 50 52  1  0
 52 53  2  0
 52 54  1  0
 54 55  1  0
 55 56  1  0
 56 57  1  0
 57 58  2  0
 58 59  1  0
 59 60  2  0
 60 61  1  0
 59 62  1  0
 62 63  1  0
 63 64  2  0
 63 65  1  0
 65 66  1  0
 66 67  1  0
 67 68  1  0
 68 69  1  0
 69 70  1  0
 70 71  2  0
 70 72  1  0
 65 73  1  0
 73 74  1  0
 74 75  2  0
 74 76  1  0
 76 77  1  0
 77 78  1  0
 77 79  1  0
 76 80  1  0
 80 81  1  0
 81 82  2  0
 81 83  1  0
 83 84  1  0
 84 85  1  0
 85 86  1  0
 86 87  1  0
 87 88  1  0
 88 89  1  0
 89 90  2  0
 89 91  1  0
 91 92  2  0
 92 93  1  0
 93 94  2  0
 14 10  1  0
 29 24  1  0
 61 56  2  0
 93 88  1  0
  1 95  1  0
  1 96  1  0
  1 97  1  0
  2 98  1  0
  2 99  1  0
  3100  1  1
  4101  1  0
  4102  1  0
  4103  1  0
  5104  1  6
  6105  1  1
  7106  1  0
  7107  1  0
 11108  1  0
 11109  1  0
 12110  1  0
 12111  1  0
 13112  1  0
 13113  1  0
 14114  1  1
 15115  1  1
 16116  1  6
 17117  1  0
 17118  1  0
 17119  1  0
 20120  1  0
 21121  1  6
 22122  1  0
 22123  1  0
 22124  1  0
 23125  1  1
 25126  1  0
 26127  1  0
 27128  1  0
 28129  1  0
 29130  1  0
 30131  1  0
 32132  1  0
 32133  1  0
 32134  1  0
 34135  1  0
 34136  1  0
 34137  1  0
 36138  1  0
 36139  1  0
 36140  1  0
 39141  1  1
 40142  1  0
 41143  1  0
 41144  1  0
 41145  1  0
 42146  1  0
 42147  1  0
 42148  1  0
 43149  1  0
 46150  1  1
 47151  1  0
 48152  1  0
 48153  1  0
 48154  1  0
 49155  1  0
 49156  1  0
 49157  1  0
 51158  1  0
 51159  1  0
 51160  1  0
 55161  1  0
 55162  1  0
 57163  1  0
 58164  1  0
 60165  1  0
 61166  1  0
 62167  1  0
 65168  1  6
 66169  1  0
 66170  1  0
 67171  1  0
 67172  1  0
 68173  1  0
 68174  1  0
 69175  1  0
 72176  1  0
 72177  1  0
 73178  1  0
 76179  1  6
 77180  1  0
 78181  1  0
 78182  1  0
 78183  1  0
 79184  1  0
 79185  1  0
 79186  1  0
 80187  1  0
 83188  1  0
 83189  1  0
 84190  1  0
 84191  1  0
 85192  1  0
 85193  1  0
 86194  1  0
 86195  1  0
 87196  1  0
 87197  1  0
 91198  1  0
 92199  1  0
M  END
$$$$

     RDKit          3D

199202  0  0  0  0  0  0  0  0999 V2000
   -7.0441    6.5993   -2.6849 C   0  0  0  0  0  0  0  0  0  0  0  0
   -5.7208    7.1001   -2.0702 C   0  0  0  0  0  0  0  0  0  0  0  0
   -4.6702    6.1815   -2.5395 C   0  0  2  0  0  0  0  0  0  0  0  0
   -5.1071    4.8007   -1.9673 C   0  0  0  0  0  0  0  0  0  0  0  0
   -3.2753    6.3648   -2.1878 C   0  0  1  0  0  0  0  0  0  0  0  0
   -2.4686    7.5263   -2.5161 C   0  0  1  0  0  0  0  0  0  0  0  0
   -2.4705    8.1939   -3.8270 C   0  0  0  0  0  0  0  0  0  0  0  0
   -3.7357    8.8054   -4.2711 C   0  0  0  0  0  0  0  0  0  0  0  0
   -4.6614    8.2031   -4.8735 O   0  0  0  0  0  0  0  0  0  0  0  0
   -4.0068   10.2095   -4.0235 N   0  0  0  0  0  0  0  0  0  0  0  0
   -3.1163   11.2064   -3.4504 C   0  0  0  0  0  0  0  0  0  0  0  0
   -4.0293   11.8680   -2.4163 C   0  0  0  0  0  0  0  0  0  0  0  0
   -5.4461   11.4856   -2.8089 C   0  0  0  0  0  0  0  0  0  0  0  0
   -5.2613   10.9043   -4.2049 C   0  0  1  0  0  0  0  0  0  0  0  0
   -5.3646   11.9605   -5.2215 C   0  0  1  0  0  0  0  0  0  0  0  0
   -5.2996   11.4714   -6.6413 C   0  0  1  0  0  0  0  0  0  0  0  0
   -5.4721   12.6646   -7.6090 C   0  0  0  0  0  0  0  0  0  0  0  0
   -3.9252   10.9712   -6.9900 C   0  0  0  0  0  0  0  0  0  0  0  0
   -3.7073    9.7850   -7.3262 O   0  0  0  0  0  0  0  0  0  0  0  0
   -2.8108   11.8559   -6.9546 N   0  0  0  0  0  0  0  0  0  0  0  0
   -1.4606   11.5216   -7.2900 C   0  0  2  0  0  0  0  0  0  0  0  0
   -0.5204   11.5604   -6.0898 C   0  0  0  0  0  0  0  0  0  0  0  0
   -0.9035   12.5550   -8.2577 C   0  0  1  0  0  0  0  0  0  0  0  0
   -1.6316   12.6010   -9.5441 C   0  0  0  0  0  0  0  0  0  0  0  0
   -2.3639   11.5577  -10.0634 C   0  0  0  0  0  0  0  0  0  0  0  0
   -3.0564   11.6165  -11.2477 C   0  0  0  0  0  0  0  0  0  0  0  0
   -3.0467   12.7819  -12.0032 C   0  0  0  0  0  0  0  0  0  0  0  0
   -2.3155   13.8364  -11.4914 C   0  0  0  0  0  0  0  0  0  0  0  0
   -1.6224   13.7758  -10.3081 C   0  0  0  0  0  0  0  0  0  0  0  0
   -0.9446   13.8192   -7.6427 O   0  0  0  0  0  0  0  0  0  0  0  0
   -6.6869   12.4883   -5.0996 O   0  0  0  0  0  0  0  0  0  0  0  0
   -6.7157   13.8510   -4.9483 C   0  0  0  0  0  0  0  0  0  0  0  0
   -2.7336    8.5635   -1.5689 O   0  0  0  0  0  0  0  0  0  0  0  0
   -1.5865    8.8994   -0.8824 C   0  0  0  0  0  0  0  0  0  0  0  0
   -3.0226    5.8731   -0.8006 N   0  0  0  0  0  0  0  0  0  0  0  0
   -3.5398    6.6108    0.3188 C   0  0  0  0  0  0  0  0  0  0  0  0
   -2.2273    4.6776   -0.6220 C   0  0  0  0  0  0  0  0  0  0  0  0
   -1.6811    4.1480   -1.6202 O   0  0  0  0  0  0  0  0  0  0  0  0
   -2.0997    4.1359    0.7703 C   0  0  1  0  0  0  0  0  0  0  0  0
   -3.2953    3.2344    1.0926 C   0  0  0  0  0  0  0  0  0  0  0  0
   -3.2680    2.0904    0.0982 C   0  0  0  0  0  0  0  0  0  0  0  0
   -3.2196    2.6590    2.4790 C   0  0  0  0  0  0  0  0  0  0  0  0
   -0.9596    3.1904    0.8224 N   0  0  0  0  0  0  0  0  0  0  0  0
    0.2241    3.7298    1.3550 C   0  0  0  0  0  0  0  0  0  0  0  0
    0.1606    4.9664    1.7114 O   0  0  0  0  0  0  0  0  0  0  0  0
    1.5206    3.0826    1.5599 C   0  0  1  0  0  0  0  0  0  0  0  0
    2.1790    3.5296    2.8494 C   0  0  0  0  0  0  0  0  0  0  0  0
    2.4264    5.0222    2.9016 C   0  0  0  0  0  0  0  0  0  0  0  0
    3.4883    2.8149    3.0454 C   0  0  0  0  0  0  0  0  0  0  0  0
    1.5357    1.6447    1.5189 N   0  0  0  0  0  0  0  0  0  0  0  0
    2.2385    0.8872    0.4929 C   0  0  0  0  0  0  0  0  0  0  0  0
    0.8159    0.8453    2.4779 C   0  0  0  0  0  0  0  0  0  0  0  0
    0.0494    1.3396    3.3358 O   0  0  0  0  0  0  0  0  0  0  0  0
    0.9492   -0.5494    2.5056 O   0  0  0  0  0  0  0  0  0  0  0  0
    0.2130   -1.3014    3.4710 C   0  0  0  0  0  0  0  0  0  0  0  0
    0.5888   -2.7117    3.4699 C   0  0  0  0  0  0  0  0  0  0  0  0
    1.6776   -3.0273    4.3112 C   0  0  0  0  0  0  0  0  0  0  0  0
    2.1463   -4.3218    4.4177 C   0  0  0  0  0  0  0  0  0  0  0  0
    1.5942   -5.3863    3.7215 C   0  0  0  0  0  0  0  0  0  0  0  0
    0.5224   -5.0715    2.8925 C   0  0  0  0  0  0  0  0  0  0  0  0
    0.0445   -3.7540    2.7848 C   0  0  0  0  0  0  0  0  0  0  0  0
    2.0716   -6.7305    3.8684 N   0  0  0  0  0  0  0  0  0  0  0  0
    2.9247   -7.2048    4.8295 C   0  0  0  0  0  0  0  0  0  0  0  0
    3.3175   -6.3030    5.7239 O   0  0  0  0  0  0  0  0  0  0  0  0
    3.5237   -8.4907    5.1153 C   0  0  1  0  0  0  0  0  0  0  0  0
    3.2158   -8.8964    6.5832 C   0  0  0  0  0  0  0  0  0  0  0  0
    3.8766  -10.2310    6.7943 C   0  0  0  0  0  0  0  0  0  0  0  0
    3.6584  -10.7657    8.1989 C   0  0  0  0  0  0  0  0  0  0  0  0
    4.2010   -9.8675    9.1849 N   0  0  0  0  0  0  0  0  0  0  0  0
    4.1174  -10.1753   10.5934 C   0  0  0  0  0  0  0  0  0  0  0  0
    3.5745  -11.2239   10.9648 O   0  0  0  0  0  0  0  0  0  0  0  0
    4.6866   -9.2077   11.4643 N   0  0  0  0  0  0  0  0  0  0  0  0
    3.2871   -9.6524    4.3368 N   0  0  0  0  0  0  0  0  0  0  0  0
    4.2888  -10.0723    3.4349 C   0  0  0  0  0  0  0  0  0  0  0  0
    5.3083   -9.3053    3.3513 O   0  0  0  0  0  0  0  0  0  0  0  0
    4.3141  -11.2715    2.5984 C   0  0  1  0  0  0  0  0  0  0  0  0
    5.7422  -11.8511    2.7361 C   0  0  0  0  0  0  0  0  0  0  0  0
    5.9662  -13.0907    1.9279 C   0  0  0  0  0  0  0  0  0  0  0  0
    6.1039  -12.1167    4.1678 C   0  0  0  0  0  0  0  0  0  0  0  0
    3.3347  -12.2426    2.9590 N   0  0  0  0  0  0  0  0  0  0  0  0
    2.7976  -13.2806    2.1731 C   0  0  0  0  0  0  0  0  0  0  0  0
    3.1260  -13.4811    1.0047 O   0  0  0  0  0  0  0  0  0  0  0  0
    1.7944  -14.1843    2.7963 C   0  0  0  0  0  0  0  0  0  0  0  0
    2.0150  -15.6238    2.5263 C   0  0  0  0  0  0  0  0  0  0  0  0
    2.0298  -16.0829    1.1088 C   0  0  0  0  0  0  0  0  0  0  0  0
    2.3017  -17.6062    1.0970 C   0  0  0  0  0  0  0  0  0  0  0  0
    2.3600  -18.1907   -0.2694 C   0  0  0  0  0  0  0  0  0  0  0  0
    2.6315  -19.6269   -0.2071 N   0  0  0  0  0  0  0  0  0  0  0  0
    3.9065  -20.2131   -0.2263 C   0  0  0  0  0  0  0  0  0  0  0  0
    5.0640  -19.7131   -0.3169 O   0  0  0  0  0  0  0  0  0  0  0  0
    3.7027  -21.6584   -0.1119 C   0  0  0  0  0  0  0  0  0  0  0  0
    2.4385  -21.9536   -0.0294 C   0  0  0  0  0  0  0  0  0  0  0  0
    1.6899  -20.6891   -0.0857 C   0  0  0  0  0  0  0  0  0  0  0  0
    0.4485  -20.4964   -0.0394 O   0  0  0  0  0  0  0  0  0  0  0  0
   -6.7691    6.3063   -3.7248 H   0  0  0  0  0  0  0  0  0  0  0  0
   -7.7641    7.4532   -2.6980 H   0  0  0  0  0  0  0  0  0  0  0  0
   -7.4997    5.7967   -2.0965 H   0  0  0  0  0  0  0  0  0  0  0  0
   -5.9142    6.9339   -0.9606 H   0  0  0  0  0  0  0  0  0  0  0  0
   -5.6628    8.1537   -2.2759 H   0  0  0  0  0  0  0  0  0  0  0  0
   -4.7634    5.9367   -3.6526 H   0  0  0  0  0  0  0  0  0  0  0  0
   -5.4287    4.8875   -0.9204 H   0  0  0  0  0  0  0  0  0  0  0  0
   -6.0303    4.4472   -2.5203 H   0  0  0  0  0  0  0  0  0  0  0  0
   -4.3515    4.0320   -2.1715 H   0  0  0  0  0  0  0  0  0  0  0  0
   -2.7484    5.5017   -2.7708 H   0  0  0  0  0  0  0  0  0  0  0  0
   -1.3660    7.3199   -2.2948 H   0  0  0  0  0  0  0  0  0  0  0  0
   -1.7102    9.0371   -3.8521 H   0  0  0  0  0  0  0  0  0  0  0  0
   -2.1282    7.5598   -4.6775 H   0  0  0  0  0  0  0  0  0  0  0  0
   -2.2039   10.7928   -3.0068 H   0  0  0  0  0  0  0  0  0  0  0  0
   -2.7722   11.9564   -4.1919 H   0  0  0  0  0  0  0  0  0  0  0  0
   -3.8152   11.3696   -1.4499 H   0  0  0  0  0  0  0  0  0  0  0  0
   -3.8893   12.9645   -2.3957 H   0  0  0  0  0  0  0  0  0  0  0  0
   -5.8157   10.6351   -2.1867 H   0  0  0  0  0  0  0  0  0  0  0  0
   -6.0896   12.3375   -2.7328 H   0  0  0  0  0  0  0  0  0  0  0  0
   -6.0735   10.1538   -4.4144 H   0  0  0  0  0  0  0  0  0  0  0  0
   -4.6914   12.8204   -5.1335 H   0  0  0  0  0  0  0  0  0  0  0  0
   -6.0743   10.7442   -6.8539 H   0  0  0  0  0  0  0  0  0  0  0  0
   -4.7840   13.4642   -7.3327 H   0  0  0  0  0  0  0  0  0  0  0  0
   -6.5221   12.9683   -7.6387 H   0  0  0  0  0  0  0  0  0  0  0  0
   -5.2086   12.3364   -8.6491 H   0  0  0  0  0  0  0  0  0  0  0  0
   -3.0055   12.8302   -6.6480 H   0  0  0  0  0  0  0  0  0  0  0  0
   -1.3715   10.5204   -7.7225 H   0  0  0  0  0  0  0  0  0  0  0  0
    0.4989   11.4107   -6.4959 H   0  0  0  0  0  0  0  0  0  0  0  0
   -0.7151   10.7516   -5.3814 H   0  0  0  0  0  0  0  0  0  0  0  0
   -0.5559   12.5795   -5.6562 H   0  0  0  0  0  0  0  0  0  0  0  0
    0.1541   12.3141   -8.4373 H   0  0  0  0  0  0  0  0  0  0  0  0
   -2.3960   10.6225   -9.5266 H   0  0  0  0  0  0  0  0  0  0  0  0
   -3.6134   10.7696  -11.6089 H   0  0  0  0  0  0  0  0  0  0  0  0
   -3.5899   12.8306  -12.9372 H   0  0  0  0  0  0  0  0  0  0  0  0
   -2.3254   14.7464  -12.1053 H   0  0  0  0  0  0  0  0  0  0  0  0
   -1.0588   14.6564   -9.9724 H   0  0  0  0  0  0  0  0  0  0  0  0
   -0.1593   14.3641   -7.9130 H   0  0  0  0  0  0  0  0  0  0  0  0
   -6.2789   14.4305   -5.8121 H   0  0  0  0  0  0  0  0  0  0  0  0
   -7.7930   14.1532   -4.9127 H   0  0  0  0  0  0  0  0  0  0  0  0
   -6.2646   14.2393   -4.0082 H   0  0  0  0  0  0  0  0  0  0  0  0
   -1.7268    9.6869   -0.1331 H   0  0  0  0  0  0  0  0  0  0  0  0
   -0.8228    9.2156   -1.6664 H   0  0  0  0  0  0  0  0  0  0  0  0
   -1.1481    7.9900   -0.4459 H   0  0  0  0  0  0  0  0  0  0  0  0
   -2.6497    6.8133    0.9972 H   0  0  0  0  0  0  0  0  0  0  0  0
   -3.9402    7.6018    0.1056 H   0  0  0  0  0  0  0  0  0  0  0  0
   -4.3166    6.0497    0.8185 H   0  0  0  0  0  0  0  0  0  0  0  0
   -1.9705    4.9869    1.4145 H   0  0  0  0  0  0  0  0  0  0  0  0
   -4.2659    3.7796    1.0405 H   0  0  0  0  0  0  0  0  0  0  0  0
   -2.8795    1.1425    0.5771 H   0  0  0  0  0  0  0  0  0  0  0  0
   -2.5848    2.2567   -0.7540 H   0  0  0  0  0  0  0  0  0  0  0  0
   -4.2779    1.9720   -0.3207 H   0  0  0  0  0  0  0  0  0  0  0  0
   -3.5971    1.5984    2.4186 H   0  0  0  0  0  0  0  0  0  0  0  0
   -2.2090    2.7171    2.8822 H   0  0  0  0  0  0  0  0  0  0  0  0
   -3.9754    3.1646    3.1196 H   0  0  0  0  0  0  0  0  0  0  0  0
   -1.0037    2.2229    0.5037 H   0  0  0  0  0  0  0  0  0  0  0  0
    2.2235    3.4091    0.7143 H   0  0  0  0  0  0  0  0  0  0  0  0
    1.5053    3.2297    3.6940 H   0  0  0  0  0  0  0  0  0  0  0  0
    2.6371    5.4731    1.9156 H   0  0  0  0  0  0  0  0  0  0  0  0
    1.5671    5.4722    3.4413 H   0  0  0  0  0  0  0  0  0  0  0  0
    3.3126    5.1770    3.5704 H   0  0  0  0  0  0  0  0  0  0  0  0
    4.3471    3.5115    2.8952 H   0  0  0  0  0  0  0  0  0  0  0  0
    3.6568    1.9606    2.3684 H   0  0  0  0  0  0  0  0  0  0  0  0
    3.6067    2.4223    4.0784 H   0  0  0  0  0  0  0  0  0  0  0  0
    2.5948    1.5894   -0.3147 H   0  0  0  0  0  0  0  0  0  0  0  0
    1.4661    0.1761    0.0973 H   0  0  0  0  0  0  0  0  0  0  0  0
    3.0785    0.3011    0.8418 H   0  0  0  0  0  0  0  0  0  0  0  0
   -0.8850   -1.1921    3.2409 H   0  0  0  0  0  0  0  0  0  0  0  0
    0.3203   -0.8818    4.4959 H   0  0  0  0  0  0  0  0  0  0  0  0
    2.1583   -2.2236    4.8929 H   0  0  0  0  0  0  0  0  0  0  0  0
    3.0027   -4.4316    5.0821 H   0  0  0  0  0  0  0  0  0  0  0  0
    0.0571   -5.8559    2.3273 H   0  0  0  0  0  0  0  0  0  0  0  0
   -0.7961   -3.5360    2.1316 H   0  0  0  0  0  0  0  0  0  0  0  0
    1.7087   -7.4174    3.1448 H   0  0  0  0  0  0  0  0  0  0  0  0
    4.6776   -8.3192    5.1732 H   0  0  0  0  0  0  0  0  0  0  0  0
    2.1122   -9.0758    6.6650 H   0  0  0  0  0  0  0  0  0  0  0  0
    3.5573   -8.1268    7.2763 H   0  0  0  0  0  0  0  0  0  0  0  0
    4.9799  -10.1735    6.6332 H   0  0  0  0  0  0  0  0  0  0  0  0
    3.4566  -10.9723    6.0908 H   0  0  0  0  0  0  0  0  0  0  0  0
    4.1601  -11.7398    8.3057 H   0  0  0  0  0  0  0  0  0  0  0  0
    2.5840  -10.9417    8.3828 H   0  0  0  0  0  0  0  0  0  0  0  0
    4.6552   -8.9854    8.8863 H   0  0  0  0  0  0  0  0  0  0  0  0
    5.6339   -8.8112   11.2778 H   0  0  0  0  0  0  0  0  0  0  0  0
    4.1136   -8.9196   12.2930 H   0  0  0  0  0  0  0  0  0  0  0  0
    2.4186  -10.2260    4.3775 H   0  0  0  0  0  0  0  0  0  0  0  0
    4.2416  -11.0284    1.5382 H   0  0  0  0  0  0  0  0  0  0  0  0
    6.4351  -11.0459    2.3718 H   0  0  0  0  0  0  0  0  0  0  0  0
    5.4158  -13.9546    2.3080 H   0  0  0  0  0  0  0  0  0  0  0  0
    7.0820  -13.3003    1.9709 H   0  0  0  0  0  0  0  0  0  0  0  0
    5.7224  -12.9053    0.8719 H   0  0  0  0  0  0  0  0  0  0  0  0
    5.5878  -12.9855    4.6143 H   0  0  0  0  0  0  0  0  0  0  0  0
    7.1967  -12.4085    4.1491 H   0  0  0  0  0  0  0  0  0  0  0  0
    6.0483  -11.2125    4.7819 H   0  0  0  0  0  0  0  0  0  0  0  0
    2.9602  -12.1763    3.9547 H   0  0  0  0  0  0  0  0  0  0  0  0
    0.7541  -13.8867    2.4778 H   0  0  0  0  0  0  0  0  0  0  0  0
    1.7972  -14.0616    3.9281 H   0  0  0  0  0  0  0  0  0  0  0  0
    1.3182  -16.2711    3.1509 H   0  0  0  0  0  0  0  0  0  0  0  0
    3.0326  -15.8850    2.9470 H   0  0  0  0  0  0  0  0  0  0  0  0
    1.0770  -15.8708    0.6248 H   0  0  0  0  0  0  0  0  0  0  0  0
    2.8590  -15.6639    0.5120 H   0  0  0  0  0  0  0  0  0  0  0  0
    3.3411  -17.6724    1.5350 H   0  0  0  0  0  0  0  0  0  0  0  0
    1.6363  -18.1457    1.7906 H   0  0  0  0  0  0  0  0  0  0  0  0
    3.1969  -17.7330   -0.8377 H   0  0  0  0  0  0  0  0  0  0  0  0
    1.4321  -18.0429   -0.8150 H   0  0  0  0  0  0  0  0  0  0  0  0
    4.4948  -22.4226   -0.0947 H   0  0  0  0  0  0  0  0  0  0  0  0
    1.9163  -22.9090    0.0642 H   0  0  0  0  0  0  0  0  0  0  0  0
  1  2  1  0
  2  3  1  0
  3  4  1  0
  3  5  1  0
  5  6  1  0
  6  7  1  0
  7  8  1  0
  8  9  2  0
  8 10  1  0
 10 11  1  0
 11 12  1  0
 12 13  1  0
 13 14  1  0
 14 15  1  0
 15 16  1  0
 16 17  1  0
 16 18  1  0
 18 19  2  0
 18 20  1  0
 20 21  1  0
 21 22  1  0
 21 23  1  0
 23 24  1  0
 24 25  2  0
 25 26  1  0
 26 27  2  0
 27 28  1  0
 28 29  2  0
 23 30  1  0
 15 31  1  0
 31 32  1  0
  6 33  1  0
 33 34  1  0
  5 35  1  0
 35 36  1  0
 35 37  1  0
 37 38  2  0
 37 39  1  0
 39 40  1  0
 40 41  1  0
 40 42  1  0
 39 43  1  0
 43 44  1  0
 44 45  2  0
 44 46  1  0
 46 47  1  0
 47 48  1  0
 47 49  1  0
 46 50  1  0
 50 51  1  0
 50 52  1  0
 52 53  2  0
 52 54  1  0
 54 55  1  0
 55 56  1  0
 56 57  1  0
 57 58  2  0
 58 59  1  0
 59 60  2  0
 60 61  1  0
 59 62  1  0
 62 63  1  0
 63 64  2  0
 63 65  1  0
 65 66  1  0
 66 67  1  0
 67 68  1  0
 68 69  1  0
 69 70  1  0
 70 71  2  0
 70 72  1  0
 65 73  1  0
 73 74  1  0
 74 75  2  0
 74 76  1  0
 76 77  1  0
 77 78  1  0
 77 79  1  0
 76 80  1  0
 80 81  1  0
 81 82  2  0
 81 83  1  0
 83 84  1  0
 84 85  1  0
 85 86  1  0
 86 87  1  0
 87 88  1  0
 88 89  1  0
 89 90  2  0
 89 91  1  0
 91 92  2  0
 92 93  1  0
 93 94  2  0
 14 10  1  0
 29 24  1  0
 61 56  2  0
 93 88  1  0
  1 95  1  0
  1 96  1  0
  1 97  1  0
  2 98  1  0
  2 99  1  0
  3100  1  6
  4101  1  0
  4102  1  0
  4103  1  0
  5104  1  6
  6105  1  1
  7106  1  0
  7107  1  0
 11108  1  0
 11109  1  0
 12110  1  0
 12111  1  0
 13112  1  0
 13113  1  0
 14114  1  6
 15115  1  1
 16116  1  1
 17117  1  0
 17118  1  0
 17119  1  0
 20120  1  0
 21121  1  6
 22122  1  0
 22123  1  0
 22124  1  0
 23125  1  6
 25126  1  0
 26127  1  0
 27128  1  0
 28129  1  0
 29130  1  0
 30131  1  0
 32132  1  0
 32133  1  0
 32134  1  0
 34135  1  0
 34136  1  0
 34137  1  0
 36138  1  0
 36139  1  0
 36140  1  0
 39141  1  1
 40142  1  0
 41143  1  0
 41144  1  0
 41145  1  0
 42146  1  0
 42147  1  0
 42148  1  0
 43149  1  0
 46150  1  6
 47151  1  0
 48152  1  0
 48153  1  0
 48154  1  0
 49155  1  0
 49156  1  0
 49157  1  0
 51158  1  0
 51159  1  0
 51160  1  0
 55161  1  0
 55162  1  0
 57163  1  0
 58164  1  0
 60165  1  0
 61166  1  0
 62167  1  0
 65168  1  1
 66169  1  0
 66170  1  0
 67171  1  0
 67172  1  0
 68173  1  0
 68174  1  0
 69175  1  0
 72176  1  0
 72177  1  0
 73178  1  0
 76179  1  6
 77180  1  0
 78181  1  0
 78182  1  0
 78183  1  0
 79184  1  0
 79185  1  0
 79186  1  0
 80187  1  0
 83188  1  0
 83189  1  0
 84190  1  0
 84191  1  0
 85192  1  0
 85193  1  0
 86194  1  0
 86195  1  0
 87196  1  0
 87197  1  0
 91198  1  0
 92199  1  0
M  END
$$$$
