
     RDKit          3D

199202  0  0  0  0  0  0  0  0999 V2000
   -9.1398    0.2818    5.7022 C   0  0  0  0  0  0  0  0  0  0  0  0
   -7.9631    0.6994    4.8240 C   0  0  0  0  0  0  0  0  0  0  0  0
   -7.9821    0.0106    3.4387 C   0  0  2  0  0  0  0  0  0  0  0  0
   -7.4999   -1.4424    3.5901 C   0  0  0  0  0  0  0  0  0  0  0  0
   -7.1740    0.7257    2.3014 C   0  0  1  0  0  0  0  0  0  0  0  0
   -7.8489    2.0080    1.6839 C   0  0  1  0  0  0  0  0  0  0  0  0
   -8.7733    1.6087    0.5181 C   0  0  0  0  0  0  0  0  0  0  0  0
   -9.1184    2.8251   -0.3081 C   0  0  0  0  0  0  0  0  0  0  0  0
   -8.2057    3.4977   -0.7997 O   0  0  0  0  0  0  0  0  0  0  0  0
  -10.4347    3.1928   -0.4734 N   0  0  0  0  0  0  0  0  0  0  0  0
  -10.6987    4.5272   -1.0056 C   0  0  0  0  0  0  0  0  0  0  0  0
  -12.1850    4.7634   -0.8102 C   0  0  0  0  0  0  0  0  0  0  0  0
  -12.5104    3.8505    0.3712 C   0  0  0  0  0  0  0  0  0  0  0  0
  -11.6700    2.5927    0.0797 C   0  0  1  0  0  0  0  0  0  0  0  0
  -12.3795    1.6174   -0.9341 C   0  0  1  0  0  0  0  0  0  0  0  0
  -11.6555    0.2603   -1.0614 C   0  0  1  0  0  0  0  0  0  0  0  0
  -11.8670   -0.6791    0.1304 C   0  0  0  0  0  0  0  0  0  0  0  0
  -12.0421   -0.4271   -2.3659 C   0  0  0  0  0  0  0  0  0  0  0  0
  -11.2790   -0.4474   -3.3297 O   0  0  0  0  0  0  0  0  0  0  0  0
  -13.2894   -0.9941   -2.3948 N   0  0  0  0  0  0  0  0  0  0  0  0
  -13.8212   -1.6900   -3.5693 C   0  0  2  0  0  0  0  0  0  0  0  0
  -14.4054   -0.6734   -4.5516 C   0  0  0  0  0  0  0  0  0  0  0  0
  -14.9000   -2.7315   -3.1630 C   0  0  1  0  0  0  0  0  0  0  0  0
  -14.3211   -3.9541   -2.4715 C   0  0  0  0  0  0  0  0  0  0  0  0
  -13.9313   -3.9239   -1.1234 C   0  0  0  0  0  0  0  0  0  0  0  0
  -13.3637   -5.0430   -0.5159 C   0  0  0  0  0  0  0  0  0  0  0  0
  -13.1825   -6.2158   -1.2449 C   0  0  0  0  0  0  0  0  0  0  0  0
  -13.5698   -6.2666   -2.5824 C   0  0  0  0  0  0  0  0  0  0  0  0
  -14.1290   -5.1447   -3.1945 C   0  0  0  0  0  0  0  0  0  0  0  0
  -15.8788   -2.1149   -2.3171 O   0  0  0  0  0  0  0  0  0  0  0  0
  -13.7311    1.3709   -0.4924 O   0  0  0  0  0  0  0  0  0  0  0  0
  -14.7195    1.8962   -1.3769 C   0  0  0  0  0  0  0  0  0  0  0  0
   -8.6613    2.6679    2.6683 O   0  0  0  0  0  0  0  0  0  0  0  0
   -8.4392    4.0701    2.7497 C   0  0  0  0  0  0  0  0  0  0  0  0
   -5.7217    0.9103    2.6149 N   0  0  0  0  0  0  0  0  0  0  0  0
   -5.3155    2.1092    3.3423 C   0  0  0  0  0  0  0  0  0  0  0  0
   -4.7941    0.1629    1.8770 C   0  0  0  0  0  0  0  0  0  0  0  0
   -5.1469   -0.7044    1.0638 O   0  0  0  0  0  0  0  0  0  0  0  0
   -3.2748    0.3717    2.1247 C   0  0  1  0  0  0  0  0  0  0  0  0
   -2.7875   -0.3463    3.4107 C   0  0  0  0  0  0  0  0  0  0  0  0
   -1.2769   -0.1630    3.6043 C   0  0  0  0  0  0  0  0  0  0  0  0
   -3.1228   -1.8411    3.4381 C   0  0  0  0  0  0  0  0  0  0  0  0
   -2.5649   -0.1269    0.9401 N   0  0  0  0  0  0  0  0  0  0  0  0
   -1.8717    0.7048    0.0745 C   0  0  0  0  0  0  0  0  0  0  0  0
   -1.6887    1.8998    0.3197 O   0  0  0  0  0  0  0  0  0  0  0  0
   -1.3164   -0.0333   -1.1776 C   0  0  1  0  0  0  0  0  0  0  0  0
   -0.9133    0.8595   -2.3791 C   0  0  0  0  0  0  0  0  0  0  0  0
   -0.7591    0.0140   -3.6556 C   0  0  0  0  0  0  0  0  0  0  0  0
    0.3244    1.7363   -2.2106 C   0  0  0  0  0  0  0  0  0  0  0  0
   -0.3639   -1.0922   -0.7887 N   0  0  0  0  0  0  0  0  0  0  0  0
   -0.7444   -2.4706   -1.0623 C   0  0  0  0  0  0  0  0  0  0  0  0
    0.7349   -0.8806    0.0393 C   0  0  0  0  0  0  0  0  0  0  0  0
    1.3874   -1.7870    0.5444 O   0  0  0  0  0  0  0  0  0  0  0  0
    0.9776    0.4351    0.2807 O   0  0  0  0  0  0  0  0  0  0  0  0
    1.8433    0.7156    1.3820 C   0  0  0  0  0  0  0  0  0  0  0  0
    3.3029    0.8168    1.0080 C   0  0  0  0  0  0  0  0  0  0  0  0
    3.7883    1.8707    0.2282 C   0  0  0  0  0  0  0  0  0  0  0  0
    5.1640    1.9839   -0.0403 C   0  0  0  0  0  0  0  0  0  0  0  0
    6.0779    1.0508    0.4716 C   0  0  0  0  0  0  0  0  0  0  0  0
    5.5878   -0.0106    1.2257 C   0  0  0  0  0  0  0  0  0  0  0  0
    4.2160   -0.1268    1.4952 C   0  0  0  0  0  0  0  0  0  0  0  0
    7.4522    1.2338    0.1572 N   0  0  0  0  0  0  0  0  0  0  0  0
    8.5105    0.4431    0.5776 C   0  0  0  0  0  0  0  0  0  0  0  0
    8.4515   -0.5079    1.3561 O   0  0  0  0  0  0  0  0  0  0  0  0
    9.8761    0.8223   -0.0466 C   0  0  1  0  0  0  0  0  0  0  0  0
   10.8976    1.1836    1.0435 C   0  0  0  0  0  0  0  0  0  0  0  0
   10.5883    2.4656    1.8226 C   0  0  0  0  0  0  0  0  0  0  0  0
   10.7768    3.7574    1.0296 C   0  0  0  0  0  0  0  0  0  0  0  0
   12.1732    4.0140    0.7402 N   0  0  0  0  0  0  0  0  0  0  0  0
   12.5720    5.2839    0.4248 C   0  0  0  0  0  0  0  0  0  0  0  0
   11.8677    6.2812    0.3997 O   0  0  0  0  0  0  0  0  0  0  0  0
   13.8977    5.3277    0.1294 N   0  0  0  0  0  0  0  0  0  0  0  0
   10.3143   -0.3861   -0.7498 N   0  0  0  0  0  0  0  0  0  0  0  0
   11.3381   -0.3777   -1.6681 C   0  0  0  0  0  0  0  0  0  0  0  0
   11.8809    0.6563   -2.0549 O   0  0  0  0  0  0  0  0  0  0  0  0
   11.7087   -1.7719   -2.2278 C   0  0  1  0  0  0  0  0  0  0  0  0
   10.8996   -2.1143   -3.5064 C   0  0  0  0  0  0  0  0  0  0  0  0
   11.3229   -3.4785   -4.0744 C   0  0  0  0  0  0  0  0  0  0  0  0
    9.3858   -2.1276   -3.2595 C   0  0  0  0  0  0  0  0  0  0  0  0
   13.1435   -1.7626   -2.5169 N   0  0  0  0  0  0  0  0  0  0  0  0
   14.0628   -2.2908   -1.6346 C   0  0  0  0  0  0  0  0  0  0  0  0
   13.7471   -2.8300   -0.5806 O   0  0  0  0  0  0  0  0  0  0  0  0
   15.4948   -2.1480   -2.1244 C   0  0  0  0  0  0  0  0  0  0  0  0
   16.5228   -2.8987   -1.2748 C   0  0  0  0  0  0  0  0  0  0  0  0
   16.8521   -2.2577    0.0800 C   0  0  0  0  0  0  0  0  0  0  0  0
   17.4779   -0.8590    0.0217 C   0  0  0  0  0  0  0  0  0  0  0  0
   18.8175   -0.7732   -0.7170 C   0  0  0  0  0  0  0  0  0  0  0  0
   19.8571   -1.5930   -0.1251 N   0  0  0  0  0  0  0  0  0  0  0  0
   20.4262   -1.3681    1.0875 C   0  0  0  0  0  0  0  0  0  0  0  0
   20.1754   -0.5022    1.9053 O   0  0  0  0  0  0  0  0  0  0  0  0
   21.4728   -2.3802    1.2667 C   0  0  0  0  0  0  0  0  0  0  0  0
   21.5183   -3.1188    0.1591 C   0  0  0  0  0  0  0  0  0  0  0  0
   20.4925   -2.6077   -0.7613 C   0  0  0  0  0  0  0  0  0  0  0  0
   20.3100   -3.0529   -1.8794 O   0  0  0  0  0  0  0  0  0  0  0  0
  -10.0909    0.5348    5.2234 H   0  0  0  0  0  0  0  0  0  0  0  0
   -9.0954    0.8145    6.6594 H   0  0  0  0  0  0  0  0  0  0  0  0
   -9.1320   -0.7902    5.9163 H   0  0  0  0  0  0  0  0  0  0  0  0
   -8.0189    1.7832    4.7324 H   0  0  0  0  0  0  0  0  0  0  0  0
   -7.0281    0.4764    5.3491 H   0  0  0  0  0  0  0  0  0  0  0  0
   -9.0255   -0.0371    3.0942 H   0  0  0  0  0  0  0  0  0  0  0  0
   -7.5160   -1.9643    2.6294 H   0  0  0  0  0  0  0  0  0  0  0  0
   -6.4800   -1.4864    3.9849 H   0  0  0  0  0  0  0  0  0  0  0  0
   -8.1467   -2.0087    4.2720 H   0  0  0  0  0  0  0  0  0  0  0  0
   -7.1948    0.0006    1.4791 H   0  0  0  0  0  0  0  0  0  0  0  0
   -7.0639    2.6813    1.3141 H   0  0  0  0  0  0  0  0  0  0  0  0
   -8.2533    0.9231   -0.1683 H   0  0  0  0  0  0  0  0  0  0  0  0
   -9.6545    1.0904    0.8938 H   0  0  0  0  0  0  0  0  0  0  0  0
  -10.3932    4.5840   -2.0539 H   0  0  0  0  0  0  0  0  0  0  0  0
  -10.1145    5.2500   -0.4240 H   0  0  0  0  0  0  0  0  0  0  0  0
  -12.7410    4.4491   -1.6997 H   0  0  0  0  0  0  0  0  0  0  0  0
  -12.4206    5.8129   -0.6148 H   0  0  0  0  0  0  0  0  0  0  0  0
  -12.1538    4.3266    1.2927 H   0  0  0  0  0  0  0  0  0  0  0  0
  -13.5805    3.6746    0.4959 H   0  0  0  0  0  0  0  0  0  0  0  0
  -11.4726    2.0818    1.0259 H   0  0  0  0  0  0  0  0  0  0  0  0
  -12.3906    2.0946   -1.9251 H   0  0  0  0  0  0  0  0  0  0  0  0
  -10.5788    0.4384   -1.1573 H   0  0  0  0  0  0  0  0  0  0  0  0
  -11.4714   -0.2551    1.0554 H   0  0  0  0  0  0  0  0  0  0  0  0
  -11.3588   -1.6336   -0.0414 H   0  0  0  0  0  0  0  0  0  0  0  0
  -12.9233   -0.9048    0.3049 H   0  0  0  0  0  0  0  0  0  0  0  0
  -13.9568   -0.7531   -1.6729 H   0  0  0  0  0  0  0  0  0  0  0  0
  -12.9902   -2.2004   -4.0682 H   0  0  0  0  0  0  0  0  0  0  0  0
  -13.6519    0.0616   -4.8532 H   0  0  0  0  0  0  0  0  0  0  0  0
  -15.2401   -0.1214   -4.1074 H   0  0  0  0  0  0  0  0  0  0  0  0
  -14.7681   -1.1688   -5.4587 H   0  0  0  0  0  0  0  0  0  0  0  0
  -15.4359   -3.0674   -4.0609 H   0  0  0  0  0  0  0  0  0  0  0  0
  -14.0590   -3.0156   -0.5368 H   0  0  0  0  0  0  0  0  0  0  0  0
  -13.0457   -4.9938    0.5249 H   0  0  0  0  0  0  0  0  0  0  0  0
  -12.7299   -7.0859   -0.7734 H   0  0  0  0  0  0  0  0  0  0  0  0
  -13.4261   -7.1811   -3.1525 H   0  0  0  0  0  0  0  0  0  0  0  0
  -14.4121   -5.2060   -4.2433 H   0  0  0  0  0  0  0  0  0  0  0  0
  -16.4163   -2.8419   -1.9478 H   0  0  0  0  0  0  0  0  0  0  0  0
  -14.6097    1.4774   -2.3796 H   0  0  0  0  0  0  0  0  0  0  0  0
  -15.7025    1.6183   -0.9871 H   0  0  0  0  0  0  0  0  0  0  0  0
  -14.6617    2.9875   -1.4276 H   0  0  0  0  0  0  0  0  0  0  0  0
   -8.6339    4.5619    1.7897 H   0  0  0  0  0  0  0  0  0  0  0  0
   -9.1236    4.4836    3.4937 H   0  0  0  0  0  0  0  0  0  0  0  0
   -7.4168    4.2807    3.0767 H   0  0  0  0  0  0  0  0  0  0  0  0
   -6.0924    2.4257    4.0357 H   0  0  0  0  0  0  0  0  0  0  0  0
   -5.1216    2.9081    2.6201 H   0  0  0  0  0  0  0  0  0  0  0  0
   -4.4073    1.9350    3.9175 H   0  0  0  0  0  0  0  0  0  0  0  0
   -3.0753    1.4452    2.2054 H   0  0  0  0  0  0  0  0  0  0  0  0
   -3.2842    0.1049    4.2732 H   0  0  0  0  0  0  0  0  0  0  0  0
   -0.7071   -0.6874    2.8295 H   0  0  0  0  0  0  0  0  0  0  0  0
   -0.9585   -0.5629    4.5758 H   0  0  0  0  0  0  0  0  0  0  0  0
   -1.0032    0.8990    3.5767 H   0  0  0  0  0  0  0  0  0  0  0  0
   -4.2028   -2.0067    3.3897 H   0  0  0  0  0  0  0  0  0  0  0  0
   -2.6573   -2.3790    2.6043 H   0  0  0  0  0  0  0  0  0  0  0  0
   -2.7667   -2.2967    4.3707 H   0  0  0  0  0  0  0  0  0  0  0  0
   -2.9079   -1.0100    0.5701 H   0  0  0  0  0  0  0  0  0  0  0  0
   -2.2125   -0.5632   -1.5425 H   0  0  0  0  0  0  0  0  0  0  0  0
   -1.7578    1.5452   -2.5568 H   0  0  0  0  0  0  0  0  0  0  0  0
   -0.6600    0.6568   -4.5376 H   0  0  0  0  0  0  0  0  0  0  0  0
    0.1368   -0.6202   -3.6039 H   0  0  0  0  0  0  0  0  0  0  0  0
   -1.6294   -0.6358   -3.8167 H   0  0  0  0  0  0  0  0  0  0  0  0
    0.2718    2.3596   -1.3178 H   0  0  0  0  0  0  0  0  0  0  0  0
    1.2488    1.1464   -2.1732 H   0  0  0  0  0  0  0  0  0  0  0  0
    0.4205    2.4170   -3.0675 H   0  0  0  0  0  0  0  0  0  0  0  0
    0.0806   -3.1643   -0.8838 H   0  0  0  0  0  0  0  0  0  0  0  0
   -1.5786   -2.7423   -0.4046 H   0  0  0  0  0  0  0  0  0  0  0  0
   -1.0568   -2.5658   -2.1077 H   0  0  0  0  0  0  0  0  0  0  0  0
    1.5293    1.6852    1.7931 H   0  0  0  0  0  0  0  0  0  0  0  0
    1.6854   -0.0007    2.2026 H   0  0  0  0  0  0  0  0  0  0  0  0
    3.1000    2.6133   -0.1739 H   0  0  0  0  0  0  0  0  0  0  0  0
    5.4986    2.8270   -0.6392 H   0  0  0  0  0  0  0  0  0  0  0  0
    6.2387   -0.7759    1.6382 H   0  0  0  0  0  0  0  0  0  0  0  0
    3.8685   -0.9735    2.0826 H   0  0  0  0  0  0  0  0  0  0  0  0
    7.6438    1.9613   -0.5147 H   0  0  0  0  0  0  0  0  0  0  0  0
    9.7776    1.6287   -0.7806 H   0  0  0  0  0  0  0  0  0  0  0  0
   10.9568    0.3567    1.7639 H   0  0  0  0  0  0  0  0  0  0  0  0
   11.9017    1.2586    0.6065 H   0  0  0  0  0  0  0  0  0  0  0  0
   11.2459    2.4924    2.6974 H   0  0  0  0  0  0  0  0  0  0  0  0
    9.5604    2.4252    2.2033 H   0  0  0  0  0  0  0  0  0  0  0  0
   10.2252    3.7395    0.0845 H   0  0  0  0  0  0  0  0  0  0  0  0
   10.3909    4.5967    1.6198 H   0  0  0  0  0  0  0  0  0  0  0  0
   12.6578    3.3268    0.1791 H   0  0  0  0  0  0  0  0  0  0  0  0
   14.2394    6.2756    0.0155 H   0  0  0  0  0  0  0  0  0  0  0  0
   14.4747    4.7653    0.7400 H   0  0  0  0  0  0  0  0  0  0  0  0
   10.0623   -1.2692   -0.3050 H   0  0  0  0  0  0  0  0  0  0  0  0
   11.5050   -2.5210   -1.4558 H   0  0  0  0  0  0  0  0  0  0  0  0
   11.1059   -1.3543   -4.2755 H   0  0  0  0  0  0  0  0  0  0  0  0
   12.3797   -3.4804   -4.3603 H   0  0  0  0  0  0  0  0  0  0  0  0
   11.1647   -4.2793   -3.3433 H   0  0  0  0  0  0  0  0  0  0  0  0
   10.7439   -3.7193   -4.9722 H   0  0  0  0  0  0  0  0  0  0  0  0
    8.8498   -2.4541   -4.1570 H   0  0  0  0  0  0  0  0  0  0  0  0
    9.1245   -2.8072   -2.4387 H   0  0  0  0  0  0  0  0  0  0  0  0
    9.0162   -1.1270   -3.0144 H   0  0  0  0  0  0  0  0  0  0  0  0
   13.4605   -1.0411   -3.1558 H   0  0  0  0  0  0  0  0  0  0  0  0
   15.5258   -2.5681   -3.1373 H   0  0  0  0  0  0  0  0  0  0  0  0
   15.7435   -1.0834   -2.2039 H   0  0  0  0  0  0  0  0  0  0  0  0
   17.4444   -3.0085   -1.8571 H   0  0  0  0  0  0  0  0  0  0  0  0
   16.1627   -3.9216   -1.0934 H   0  0  0  0  0  0  0  0  0  0  0  0
   17.5283   -2.9311    0.6208 H   0  0  0  0  0  0  0  0  0  0  0  0
   15.9404   -2.2017    0.6828 H   0  0  0  0  0  0  0  0  0  0  0  0
   16.7765   -0.1608   -0.4433 H   0  0  0  0  0  0  0  0  0  0  0  0
   17.6090   -0.5115    1.0525 H   0  0  0  0  0  0  0  0  0  0  0  0
   18.6948   -1.0420   -1.7712 H   0  0  0  0  0  0  0  0  0  0  0  0
   19.1667    0.2642   -0.6807 H   0  0  0  0  0  0  0  0  0  0  0  0
   22.0773   -2.4588    2.1537 H   0  0  0  0  0  0  0  0  0  0  0  0
   22.1676   -3.9450   -0.0770 H   0  0  0  0  0  0  0  0  0  0  0  0
  1  2  1  0
  2  3  1  0
  3  4  1  0
  3  5  1  0
  5  6  1  0
  6  7  1  0
  7  8  1  0
  8  9  2  0
  8 10  1  0
 10 11  1  0
 11 12  1  0
 12 13  1  0
 13 14  1  0
 14 15  1  0
 15 16  1  0
 16 17  1  0
 16 18  1  0
 18 19  2  0
 18 20  1  0
 20 21  1  0
 21 22  1  0
 21 23  1  0
 23 24  1  0
 24 25  2  0
 25 26  1  0
 26 27  2  0
 27 28  1  0
 28 29  2  0
 23 30  1  0
 15 31  1  0
 31 32  1  0
  6 33  1  0
 33 34  1  0
  5 35  1  0
 35 36  1  0
 35 37  1  0
 37 38  2  0
 37 39  1  0
 39 40  1  0
 40 41  1  0
 40 42  1  0
 39 43  1  0
 43 44  1  0
 44 45  2  0
 44 46  1  0
 46 47  1  0
 47 48  1  0
 47 49  1  0
 46 50  1  0
 50 51  1  0
 50 52  1  0
 52 53  2  0
 52 54  1  0
 54 55  1  0
 55 56  1  0
 56 57  1  0
 57 58  2  0
 58 59  1  0
 59 60  2  0
 60 61  1  0
 59 62  1  0
 62 63  1  0
 63 64  2  0
 63 65  1  0
 65 66  1  0
 66 67  1  0
 67 68  1  0
 68 69  1  0
 69 70  1  0
 70 71  2  0
 70 72  1  0
 65 73  1  0
 73 74  1  0
 74 75  2  0
 74 76  1  0
 76 77  1  0
 77 78  1  0
 77 79  1  0
 76 80  1  0
 80 81  1  0
 81 82  2  0
 81 83  1  0
 83 84  1  0
 84 85  1  0
 85 86  1  0
 86 87  1  0
 87 88  1  0
 88 89  1  0
 89 90  2  0
 89 91  1  0
 91 92  2  0
 92 93  1  0
 93 94  2  0
 14 10  1  0
 29 24  1  0
 61 56  2  0
 93 88  1  0
  1 95  1  0
  1 96  1  0
  1 97  1  0
  2 98  1  0
  2 99  1  0
  3100  1  6
  4101  1  0
  4102  1  0
  4103  1  0
  5104  1  6
  6105  1  6
  7106  1  0
  7107  1  0
 11108  1  0
 11109  1  0
 12110  1  0
 12111  1  0
 13112  1  0
 13113  1  0
 14114  1  1
 15115  1  6
 16116  1  6
 17117  1  0
 17118  1  0
 17119  1  0
 20120  1  0
 21121  1  6
 22122  1  0
 22123  1  0
 22124  1  0
 23125  1  6
 25126  1  0
 26127  1  0
 27128  1  0
 28129  1  0
 29130  1  0
 30131  1  0
 32132  1  0
 32133  1  0
 32134  1  0
 34135  1  0
 34136  1  0
 34137  1  0
 36138  1  0
 36139  1  0
 36140  1  0
 39141  1  1
 40142  1  0
 41143  1  0
 41144  1  0
 41145  1  0
 42146  1  0
 42147  1  0
 42148  1  0
 43149  1  0
 46150  1  6
 47151  1  0
 48152  1  0
 48153  1  0
 48154  1  0
 49155  1  0
 49156  1  0
 49157  1  0
 51158  1  0
 51159  1  0
 51160  1  0
 55161  1  0
 55162  1  0
 57163  1  0
 58164  1  0
 60165  1  0
 61166  1  0
 62167  1  0
 65168  1  6
 66169  1  0
 66170  1  0
 67171  1  0
 67172  1  0
 68173  1  0
 68174  1  0
 69175  1  0
 72176  1  0
 72177  1  0
 73178  1  0
 76179  1  1
 77180  1  0
 78181  1  0
 78182  1  0
 78183  1  0
 79184  1  0
 79185  1  0
 79186  1  0
 80187  1  0
 83188  1  0
 83189  1  0
 84190  1  0
 84191  1  0
 85192  1  0
 85193  1  0
 86194  1  0
 86195  1  0
 87196  1  0
 87197  1  0
 91198  1  0
 92199  1  0
M  END
$$$$

     RDKit          3D

199202  0  0  0  0  0  0  0  0999 V2000
   -7.2740    0.4809   -3.6045 C   0  0  0  0  0  0  0  0  0  0  0  0
   -6.8660   -0.9741   -3.4182 C   0  0  0  0  0  0  0  0  0  0  0  0
   -5.6254   -1.1740   -2.5177 C   0  0  2  0  0  0  0  0  0  0  0  0
   -5.1363   -2.6204   -2.6989 C   0  0  0  0  0  0  0  0  0  0  0  0
   -5.8016   -0.6927   -1.0308 C   0  0  1  0  0  0  0  0  0  0  0  0
   -6.7527   -1.5083   -0.0671 C   0  0  1  0  0  0  0  0  0  0  0  0
   -8.2473   -1.1692   -0.2302 C   0  0  0  0  0  0  0  0  0  0  0  0
   -8.6756   -0.1489    0.8070 C   0  0  0  0  0  0  0  0  0  0  0  0
   -8.0468    0.9100    0.8927 O   0  0  0  0  0  0  0  0  0  0  0  0
   -9.7741   -0.3972    1.6162 N   0  0  0  0  0  0  0  0  0  0  0  0
   -9.9851    0.4680    2.7669 C   0  0  0  0  0  0  0  0  0  0  0  0
   -9.9338   -0.5098    3.9245 C   0  0  0  0  0  0  0  0  0  0  0  0
  -10.6666   -1.7299    3.3795 C   0  0  0  0  0  0  0  0  0  0  0  0
  -10.4793   -1.6776    1.8399 C   0  0  1  0  0  0  0  0  0  0  0  0
  -11.8737   -1.7606    1.1409 C   0  0  1  0  0  0  0  0  0  0  0  0
  -11.7775   -1.7060   -0.4035 C   0  0  1  0  0  0  0  0  0  0  0  0
  -11.9142   -3.0595   -1.0995 C   0  0  0  0  0  0  0  0  0  0  0  0
  -12.7726   -0.6884   -0.9433 C   0  0  0  0  0  0  0  0  0  0  0  0
  -13.7596   -0.9916   -1.6058 O   0  0  0  0  0  0  0  0  0  0  0  0
  -12.4385    0.6126   -0.6252 N   0  0  0  0  0  0  0  0  0  0  0  0
  -13.2493    1.7617   -1.0220 C   0  0  2  0  0  0  0  0  0  0  0  0
  -12.3506    2.7392   -1.7828 C   0  0  0  0  0  0  0  0  0  0  0  0
  -13.9022    2.4539    0.2073 C   0  0  1  0  0  0  0  0  0  0  0  0
  -14.9796    1.6263    0.8904 C   0  0  0  0  0  0  0  0  0  0  0  0
  -14.8091    1.0743    2.1703 C   0  0  0  0  0  0  0  0  0  0  0  0
  -15.8402    0.3559    2.7851 C   0  0  0  0  0  0  0  0  0  0  0  0
  -17.0518    0.1693    2.1248 C   0  0  0  0  0  0  0  0  0  0  0  0
  -17.2340    0.6956    0.8497 C   0  0  0  0  0  0  0  0  0  0  0  0
  -16.2068    1.4202    0.2376 C   0  0  0  0  0  0  0  0  0  0  0  0
  -12.8829    2.8404    1.1408 O   0  0  0  0  0  0  0  0  0  0  0  0
  -12.4975   -2.9839    1.5822 O   0  0  0  0  0  0  0  0  0  0  0  0
  -13.9186   -2.8873    1.6527 C   0  0  0  0  0  0  0  0  0  0  0  0
   -6.5748   -2.9244   -0.2456 O   0  0  0  0  0  0  0  0  0  0  0  0
   -6.8505   -3.6946    0.9184 C   0  0  0  0  0  0  0  0  0  0  0  0
   -4.4571   -0.4143   -0.4013 N   0  0  0  0  0  0  0  0  0  0  0  0
   -3.7170   -1.5204    0.1783 C   0  0  0  0  0  0  0  0  0  0  0  0
   -3.8234    0.7928   -0.7487 C   0  0  0  0  0  0  0  0  0  0  0  0
   -4.3786    1.5927   -1.5158 O   0  0  0  0  0  0  0  0  0  0  0  0
   -2.5139    1.2703   -0.0245 C   0  0  1  0  0  0  0  0  0  0  0  0
   -2.8385    2.2057    1.1773 C   0  0  0  0  0  0  0  0  0  0  0  0
   -3.7256    1.5554    2.2416 C   0  0  0  0  0  0  0  0  0  0  0  0
   -3.4519    3.5357    0.7274 C   0  0  0  0  0  0  0  0  0  0  0  0
   -1.5386    0.2608    0.3925 N   0  0  0  0  0  0  0  0  0  0  0  0
   -0.6200   -0.2753   -0.4991 C   0  0  0  0  0  0  0  0  0  0  0  0
   -0.7106   -0.1002   -1.7088 O   0  0  0  0  0  0  0  0  0  0  0  0
    0.3615   -1.2789    0.1676 C   0  0  1  0  0  0  0  0  0  0  0  0
    1.5510   -1.7811   -0.6903 C   0  0  0  0  0  0  0  0  0  0  0  0
    2.4811   -0.6909   -1.2198 C   0  0  0  0  0  0  0  0  0  0  0  0
    1.0780   -2.6623   -1.8520 C   0  0  0  0  0  0  0  0  0  0  0  0
    0.7282   -0.9083    1.5628 N   0  0  0  0  0  0  0  0  0  0  0  0
    0.7372   -1.9854    2.5399 C   0  0  0  0  0  0  0  0  0  0  0  0
    1.4149    0.2556    1.8897 C   0  0  0  0  0  0  0  0  0  0  0  0
    1.9502    0.4489    2.9770 O   0  0  0  0  0  0  0  0  0  0  0  0
    1.3623    1.1830    0.9042 O   0  0  0  0  0  0  0  0  0  0  0  0
    2.0085    2.4359    1.1834 C   0  0  0  0  0  0  0  0  0  0  0  0
    3.4310    2.4055    0.6916 C   0  0  0  0  0  0  0  0  0  0  0  0
    3.7137    2.5857   -0.6662 C   0  0  0  0  0  0  0  0  0  0  0  0
    5.0250    2.4940   -1.1418 C   0  0  0  0  0  0  0  0  0  0  0  0
    6.0800    2.2276   -0.2687 C   0  0  0  0  0  0  0  0  0  0  0  0
    5.8017    2.0477    1.0904 C   0  0  0  0  0  0  0  0  0  0  0  0
    4.4890    2.1337    1.5675 C   0  0  0  0  0  0  0  0  0  0  0  0
    7.4257    2.1581   -0.6718 N   0  0  0  0  0  0  0  0  0  0  0  0
    7.9379    2.2285   -1.9591 C   0  0  0  0  0  0  0  0  0  0  0  0
    7.2750    2.2963   -2.9934 O   0  0  0  0  0  0  0  0  0  0  0  0
    9.4724    2.4523   -1.9859 C   0  0  1  0  0  0  0  0  0  0  0  0
    9.7612    3.9647   -2.0194 C   0  0  0  0  0  0  0  0  0  0  0  0
    9.3375    4.6405   -3.3289 C   0  0  0  0  0  0  0  0  0  0  0  0
    9.6654    6.1340   -3.3441 C   0  0  0  0  0  0  0  0  0  0  0  0
   11.0865    6.4152   -3.2560 N   0  0  0  0  0  0  0  0  0  0  0  0
   11.9000    6.1977   -4.3333 C   0  0  0  0  0  0  0  0  0  0  0  0
   11.5808    5.6668   -5.3853 O   0  0  0  0  0  0  0  0  0  0  0  0
   13.1619    6.6459   -4.1132 N   0  0  0  0  0  0  0  0  0  0  0  0
   10.1547    1.8756   -0.8088 N   0  0  0  0  0  0  0  0  0  0  0  0
   10.3394    0.5070   -0.7304 C   0  0  0  0  0  0  0  0  0  0  0  0
    9.7171   -0.2865   -1.4355 O   0  0  0  0  0  0  0  0  0  0  0  0
   11.3554    0.0476    0.3422 C   0  0  1  0  0  0  0  0  0  0  0  0
   10.8449    0.3259    1.7744 C   0  0  0  0  0  0  0  0  0  0  0  0
    9.6065   -0.4983    2.1497 C   0  0  0  0  0  0  0  0  0  0  0  0
   11.9603    0.0968    2.7992 C   0  0  0  0  0  0  0  0  0  0  0  0
   11.6284   -1.3659    0.1029 N   0  0  0  0  0  0  0  0  0  0  0  0
   12.7945   -1.7636   -0.5123 C   0  0  0  0  0  0  0  0  0  0  0  0
   13.7834   -1.0470   -0.6469 O   0  0  0  0  0  0  0  0  0  0  0  0
   12.7799   -3.2074   -0.9612 C   0  0  0  0  0  0  0  0  0  0  0  0
   12.9250   -4.1684    0.2184 C   0  0  0  0  0  0  0  0  0  0  0  0
   14.2543   -4.9314    0.2094 C   0  0  0  0  0  0  0  0  0  0  0  0
   15.5034   -4.0731    0.4231 C   0  0  0  0  0  0  0  0  0  0  0  0
   15.6283   -3.5386    1.8529 C   0  0  0  0  0  0  0  0  0  0  0  0
   16.8963   -2.8674    2.0699 N   0  0  0  0  0  0  0  0  0  0  0  0
   17.0351   -1.5567    2.3955 C   0  0  0  0  0  0  0  0  0  0  0  0
   16.1827   -0.7060    2.5664 O   0  0  0  0  0  0  0  0  0  0  0  0
   18.4707   -1.3093    2.5739 C   0  0  0  0  0  0  0  0  0  0  0  0
   19.1078   -2.4698    2.4165 C   0  0  0  0  0  0  0  0  0  0  0  0
   18.0988   -3.4956    2.1293 C   0  0  0  0  0  0  0  0  0  0  0  0
   18.3582   -4.6776    2.0007 O   0  0  0  0  0  0  0  0  0  0  0  0
   -8.0833    0.5506   -4.3394 H   0  0  0  0  0  0  0  0  0  0  0  0
   -7.6347    0.9315   -2.6759 H   0  0  0  0  0  0  0  0  0  0  0  0
   -6.4351    1.0795   -3.9742 H   0  0  0  0  0  0  0  0  0  0  0  0
   -6.6440   -1.3748   -4.4152 H   0  0  0  0  0  0  0  0  0  0  0  0
   -7.7132   -1.5599   -3.0475 H   0  0  0  0  0  0  0  0  0  0  0  0
   -4.8355   -0.5515   -2.9607 H   0  0  0  0  0  0  0  0  0  0  0  0
   -4.8015   -2.7717   -3.7321 H   0  0  0  0  0  0  0  0  0  0  0  0
   -5.9331   -3.3473   -2.5201 H   0  0  0  0  0  0  0  0  0  0  0  0
   -4.2857   -2.8562   -2.0571 H   0  0  0  0  0  0  0  0  0  0  0  0
   -6.2611    0.3007   -1.0823 H   0  0  0  0  0  0  0  0  0  0  0  0
   -6.4487   -1.2594    0.9584 H   0  0  0  0  0  0  0  0  0  0  0  0
   -8.8487   -2.0753   -0.1867 H   0  0  0  0  0  0  0  0  0  0  0  0
   -8.4607   -0.7155   -1.1999 H   0  0  0  0  0  0  0  0  0  0  0  0
   -9.2459    1.2657    2.8683 H   0  0  0  0  0  0  0  0  0  0  0  0
  -10.9828    0.9145    2.6734 H   0  0  0  0  0  0  0  0  0  0  0  0
  -10.3889   -0.1158    4.8366 H   0  0  0  0  0  0  0  0  0  0  0  0
   -8.8951   -0.7777    4.1490 H   0  0  0  0  0  0  0  0  0  0  0  0
  -10.2678   -2.6591    3.8048 H   0  0  0  0  0  0  0  0  0  0  0  0
  -11.7238   -1.6713    3.6670 H   0  0  0  0  0  0  0  0  0  0  0  0
   -9.8563   -2.5231    1.5394 H   0  0  0  0  0  0  0  0  0  0  0  0
  -12.4616   -0.9155    1.5181 H   0  0  0  0  0  0  0  0  0  0  0  0
  -10.8093   -1.3021   -0.7090 H   0  0  0  0  0  0  0  0  0  0  0  0
  -11.7557   -2.9531   -2.1797 H   0  0  0  0  0  0  0  0  0  0  0  0
  -12.9106   -3.4942   -0.9697 H   0  0  0  0  0  0  0  0  0  0  0  0
  -11.1716   -3.7708   -0.7221 H   0  0  0  0  0  0  0  0  0  0  0  0
  -11.6675    0.8069    0.0029 H   0  0  0  0  0  0  0  0  0  0  0  0
  -14.0315    1.4254   -1.7120 H   0  0  0  0  0  0  0  0  0  0  0  0
  -12.9206    3.6078   -2.1249 H   0  0  0  0  0  0  0  0  0  0  0  0
  -11.9108    2.2549   -2.6621 H   0  0  0  0  0  0  0  0  0  0  0  0
  -11.5223    3.0954   -1.1600 H   0  0  0  0  0  0  0  0  0  0  0  0
  -14.3760    3.3863   -0.1298 H   0  0  0  0  0  0  0  0  0  0  0  0
  -13.8670    1.1927    2.7027 H   0  0  0  0  0  0  0  0  0  0  0  0
  -15.6933   -0.0568    3.7795 H   0  0  0  0  0  0  0  0  0  0  0  0
  -17.8498   -0.3912    2.6001 H   0  0  0  0  0  0  0  0  0  0  0  0
  -18.1768    0.5450    0.3274 H   0  0  0  0  0  0  0  0  0  0  0  0
  -16.3744    1.8173   -0.7612 H   0  0  0  0  0  0  0  0  0  0  0  0
  -13.3352    3.3719    1.8202 H   0  0  0  0  0  0  0  0  0  0  0  0
  -14.3198   -3.8779    1.8782 H   0  0  0  0  0  0  0  0  0  0  0  0
  -14.3467   -2.5442    0.7064 H   0  0  0  0  0  0  0  0  0  0  0  0
  -14.2023   -2.2082    2.4628 H   0  0  0  0  0  0  0  0  0  0  0  0
   -6.6280   -4.7402    0.6922 H   0  0  0  0  0  0  0  0  0  0  0  0
   -7.9020   -3.6200    1.1988 H   0  0  0  0  0  0  0  0  0  0  0  0
   -6.2175   -3.3758    1.7530 H   0  0  0  0  0  0  0  0  0  0  0  0
   -3.3140   -1.2279    1.1489 H   0  0  0  0  0  0  0  0  0  0  0  0
   -4.3428   -2.3921    0.3511 H   0  0  0  0  0  0  0  0  0  0  0  0
   -2.9116   -1.8114   -0.4993 H   0  0  0  0  0  0  0  0  0  0  0  0
   -1.9870    1.8706   -0.7802 H   0  0  0  0  0  0  0  0  0  0  0  0
   -1.8824    2.4547    1.6611 H   0  0  0  0  0  0  0  0  0  0  0  0
   -4.7329    1.3530    1.8627 H   0  0  0  0  0  0  0  0  0  0  0  0
   -3.8275    2.2203    3.1072 H   0  0  0  0  0  0  0  0  0  0  0  0
   -3.2957    0.6155    2.6008 H   0  0  0  0  0  0  0  0  0  0  0  0
   -3.5132    4.2306    1.5722 H   0  0  0  0  0  0  0  0  0  0  0  0
   -2.8367    4.0097   -0.0481 H   0  0  0  0  0  0  0  0  0  0  0  0
   -4.4661    3.4117    0.3313 H   0  0  0  0  0  0  0  0  0  0  0  0
   -1.2600    0.2306    1.3644 H   0  0  0  0  0  0  0  0  0  0  0  0
   -0.2882   -2.1563    0.2990 H   0  0  0  0  0  0  0  0  0  0  0  0
    2.1688   -2.4302   -0.0537 H   0  0  0  0  0  0  0  0  0  0  0  0
    3.0574   -0.2603   -0.3999 H   0  0  0  0  0  0  0  0  0  0  0  0
    3.2093   -1.1015   -1.9269 H   0  0  0  0  0  0  0  0  0  0  0  0
    1.9373    0.1078   -1.7312 H   0  0  0  0  0  0  0  0  0  0  0  0
    0.5214   -2.0947   -2.6025 H   0  0  0  0  0  0  0  0  0  0  0  0
    0.4375   -3.4731   -1.4906 H   0  0  0  0  0  0  0  0  0  0  0  0
    1.9334   -3.1241   -2.3582 H   0  0  0  0  0  0  0  0  0  0  0  0
    0.9439   -1.6174    3.5493 H   0  0  0  0  0  0  0  0  0  0  0  0
    1.5071   -2.7139    2.2668 H   0  0  0  0  0  0  0  0  0  0  0  0
   -0.2435   -2.4707    2.5450 H   0  0  0  0  0  0  0  0  0  0  0  0
    1.9487    2.7135    2.2435 H   0  0  0  0  0  0  0  0  0  0  0  0
    1.4536    3.2120    0.6415 H   0  0  0  0  0  0  0  0  0  0  0  0
    2.9099    2.7652   -1.3796 H   0  0  0  0  0  0  0  0  0  0  0  0
    5.1869    2.6346   -2.2057 H   0  0  0  0  0  0  0  0  0  0  0  0
    6.5953    1.8334    1.8016 H   0  0  0  0  0  0  0  0  0  0  0  0
    4.2948    1.9653    2.6267 H   0  0  0  0  0  0  0  0  0  0  0  0
    8.1151    1.9776    0.0444 H   0  0  0  0  0  0  0  0  0  0  0  0
    9.8726    1.9534   -2.8787 H   0  0  0  0  0  0  0  0  0  0  0  0
    9.2645    4.4609   -1.1744 H   0  0  0  0  0  0  0  0  0  0  0  0
   10.8377    4.1175   -1.8762 H   0  0  0  0  0  0  0  0  0  0  0  0
    9.8198    4.1339   -4.1719 H   0  0  0  0  0  0  0  0  0  0  0  0
    8.2556    4.5405   -3.4666 H   0  0  0  0  0  0  0  0  0  0  0  0
    9.2812    6.5886   -4.2640 H   0  0  0  0  0  0  0  0  0  0  0  0
    9.1837    6.6350   -2.4963 H   0  0  0  0  0  0  0  0  0  0  0  0
   11.3391    7.2513   -2.7504 H   0  0  0  0  0  0  0  0  0  0  0  0
   13.7951    6.3805   -4.8590 H   0  0  0  0  0  0  0  0  0  0  0  0
   13.5327    6.4867   -3.1879 H   0  0  0  0  0  0  0  0  0  0  0  0
   10.9204    2.4231   -0.4368 H   0  0  0  0  0  0  0  0  0  0  0  0
   12.2712    0.6272    0.1712 H   0  0  0  0  0  0  0  0  0  0  0  0
   10.5599    1.3835    1.8452 H   0  0  0  0  0  0  0  0  0  0  0  0
    9.8122   -1.5726    2.1093 H   0  0  0  0  0  0  0  0  0  0  0  0
    8.7719   -0.2833    1.4760 H   0  0  0  0  0  0  0  0  0  0  0  0
    9.2774   -0.2649    3.1677 H   0  0  0  0  0  0  0  0  0  0  0  0
   12.2516   -0.9583    2.8536 H   0  0  0  0  0  0  0  0  0  0  0  0
   12.8504    0.6849    2.5456 H   0  0  0  0  0  0  0  0  0  0  0  0
   11.6393    0.4058    3.8005 H   0  0  0  0  0  0  0  0  0  0  0  0
   10.8086   -1.9265   -0.1059 H   0  0  0  0  0  0  0  0  0  0  0  0
   11.8288   -3.3862   -1.4771 H   0  0  0  0  0  0  0  0  0  0  0  0
   13.5618   -3.3451   -1.7154 H   0  0  0  0  0  0  0  0  0  0  0  0
   12.1231   -4.9152    0.1482 H   0  0  0  0  0  0  0  0  0  0  0  0
   12.7912   -3.6622    1.1795 H   0  0  0  0  0  0  0  0  0  0  0  0
   14.2218   -5.7156    0.9762 H   0  0  0  0  0  0  0  0  0  0  0  0
   14.3503   -5.4531   -0.7528 H   0  0  0  0  0  0  0  0  0  0  0  0
   15.5342   -3.2427   -0.2888 H   0  0  0  0  0  0  0  0  0  0  0  0
   16.3772   -4.6937    0.1934 H   0  0  0  0  0  0  0  0  0  0  0  0
   14.8113   -2.8443    2.0795 H   0  0  0  0  0  0  0  0  0  0  0  0
   15.5712   -4.3711    2.5651 H   0  0  0  0  0  0  0  0  0  0  0  0
   18.8807   -0.3425    2.8086 H   0  0  0  0  0  0  0  0  0  0  0  0
   20.1620   -2.6791    2.4940 H   0  0  0  0  0  0  0  0  0  0  0  0
  1  2  1  0
  2  3  1  0
  3  4  1  0
  3  5  1  0
  5  6  1  0
  6  7  1  0
  7  8  1  0
  8  9  2  0
  8 10  1  0
 10 11  1  0
 11 12  1  0
 12 13  1  0
 13 14  1  0
 14 15  1  0
 15 16  1  0
 16 17  1  0
 16 18  1  0
 18 19  2  0
 18 20  1  0
 20 21  1  0
 21 22  1  0
 21 23  1  0
 23 24  1  0
 24 25  2  0
 25 26  1  0
 26 27  2  0
 27 28  1  0
 28 29  2  0
 23 30  1  0
 15 31  1  0
 31 32  1  0
  6 33  1  0
 33 34  1  0
  5 35  1  0
 35 36  1  0
 35 37  1  0
 37 38  2  0
 37 39  1  0
 39 40  1  0
 40 41  1  0
 40 42  1  0
 39 43  1  0
 43 44  1  0
 44 45  2  0
 44 46  1  0
 46 47  1  0
 47 48  1  0
 47 49  1  0
 46 50  1  0
 50 51  1  0
 50 52  1  0
 52 53  2  0
 52 54  1  0
 54 55  1  0
 55 56  1  0
 56 57  1  0
 57 58  2  0
 58 59  1  0
 59 60  2  0
 60 61  1  0
 59 62  1  0
 62 63  1  0
 63 64  2  0
 63 65  1  0
 65 66  1  0
 66 67  1  0
 67 68  1  0
 68 69  1  0
 69 70  1  0
 70 71  2  0
 70 72  1  0
 65 73  1  0
 73 74  1  0
 74 75  2  0
 74 76  1  0
 76 77  1  0
 77 78  1  0
 77 79  1  0
 76 80  1  0
 80 81  1  0
 81 82  2  0
 81 83  1  0
 83 84  1  0
 84 85  1  0
 85 86  1  0
 86 87  1  0
 87 88  1  0
 88 89  1  0
 89 90  2  0
 89 91  1  0
 91 92  2  0
 92 93  1  0
 93 94  2  0
 14 10  1  0
 29 24  1  0
 61 56  2  0
 93 88  1  0
  1 95  1  0
  1 96  1  0
  1 97  1  0
  2 98  1  0
  2 99  1  0
  3100  1  6
  4101  1  0
  4102  1  0
  4103  1  0
  5104  1  6
  6105  1  1
  7106  1  0
  7107  1  0
 11108  1  0
 11109  1  0
 12110  1  0
 12111  1  0
 13112  1  0
 13113  1  0
 14114  1  6
 15115  1  1
 16116  1  1
 17117  1  0
 17118  1  0
 17119  1  0
 20120  1  0
 21121  1  6
 22122  1  0
 22123  1  0
 22124  1  0
 23125  1  6
 25126  1  0
 26127  1  0
 27128  1  0
 28129  1  0
 29130  1  0
 30131  1  0
 32132  1  0
 32133  1  0
 32134  1  0
 34135  1  0
 34136  1  0
 34137  1  0
 36138  1  0
 36139  1  0
 36140  1  0
 39141  1  6
 40142  1  0
 41143  1  0
 41144  1  0
 41145  1  0
 42146  1  0
 42147  1  0
 42148  1  0
 43149  1  0
 46150  1  1
 47151  1  0
 48152  1  0
 48153  1  0
 48154  1  0
 49155  1  0
 49156  1  0
 49157  1  0
 51158  1  0
 51159  1  0
 51160  1  0
 55161  1  0
 55162  1  0
 57163  1  0
 58164  1  0
 60165  1  0
 61166  1  0
 62167  1  0
 65168  1  6
 66169  1  0
 66170  1  0
 67171  1  0
 67172  1  0
 68173  1  0
 68174  1  0
 69175  1  0
 72176  1  0
 72177  1  0
 73178  1  0
 76179  1  6
 77180  1  0
 78181  1  0
 78182  1  0
 78183  1  0
 79184  1  0
 79185  1  0
 79186  1  0
 80187  1  0
 83188  1  0
 83189  1  0
 84190  1  0
 84191  1  0
 85192  1  0
 85193  1  0
 86194  1  0
 86195  1  0
 87196  1  0
 87197  1  0
 91198  1  0
 92199  1  0
M  END
$$$$

     RDKit          3D

199202  0  0  0  0  0  0  0  0999 V2000
    5.0625   -1.0415    4.7041 C   0  0  0  0  0  0  0  0  0  0  0  0
    4.1892    0.0601    4.1095 C   0  0  0  0  0  0  0  0  0  0  0  0
    3.6544   -0.1828    2.6729 C   0  0  2  0  0  0  0  0  0  0  0  0
    3.1998   -1.6301    2.4898 C   0  0  0  0  0  0  0  0  0  0  0  0
    4.5717    0.4624    1.5695 C   0  0  1  0  0  0  0  0  0  0  0  0
    6.1143    0.1650    1.5944 C   0  0  1  0  0  0  0  0  0  0  0  0
    6.5772   -1.1429    0.9559 C   0  0  0  0  0  0  0  0  0  0  0  0
    7.9975   -1.5123    1.3618 C   0  0  0  0  0  0  0  0  0  0  0  0
    8.4564   -1.2021    2.4607 O   0  0  0  0  0  0  0  0  0  0  0  0
    8.7149   -2.2729    0.4499 N   0  0  0  0  0  0  0  0  0  0  0  0
    8.1199   -3.0478   -0.6290 C   0  0  0  0  0  0  0  0  0  0  0  0
    8.9495   -4.3197   -0.6632 C   0  0  0  0  0  0  0  0  0  0  0  0
   10.3444   -3.8166   -0.3244 C   0  0  0  0  0  0  0  0  0  0  0  0
   10.0992   -2.6913    0.6998 C   0  0  1  0  0  0  0  0  0  0  0  0
   11.1996   -1.5851    0.5739 C   0  0  1  0  0  0  0  0  0  0  0  0
   11.0558   -0.6857   -0.6814 C   0  0  1  0  0  0  0  0  0  0  0  0
   10.1965    0.5671   -0.5060 C   0  0  0  0  0  0  0  0  0  0  0  0
   12.4404   -0.2695   -1.1605 C   0  0  0  0  0  0  0  0  0  0  0  0
   12.8221   -0.4985   -2.3058 O   0  0  0  0  0  0  0  0  0  0  0  0
   13.2068    0.3831   -0.2272 N   0  0  0  0  0  0  0  0  0  0  0  0
   14.6101    0.7335   -0.4504 C   0  0  2  0  0  0  0  0  0  0  0  0
   15.4656   -0.5398   -0.4241 C   0  0  0  0  0  0  0  0  0  0  0  0
   15.1292    1.7403    0.6156 C   0  0  1  0  0  0  0  0  0  0  0  0
   14.6395    3.1640    0.4352 C   0  0  0  0  0  0  0  0  0  0  0  0
   13.3048    3.5181    0.6879 C   0  0  0  0  0  0  0  0  0  0  0  0
   12.8753    4.8371    0.5204 C   0  0  0  0  0  0  0  0  0  0  0  0
   13.7722    5.8164    0.1025 C   0  0  0  0  0  0  0  0  0  0  0  0
   15.1010    5.4818   -0.1446 C   0  0  0  0  0  0  0  0  0  0  0  0
   15.5313    4.1623    0.0154 C   0  0  0  0  0  0  0  0  0  0  0  0
   14.7982    1.2720    1.9352 O   0  0  0  0  0  0  0  0  0  0  0  0
   11.3089   -0.7260    1.7258 O   0  0  0  0  0  0  0  0  0  0  0  0
   11.8465   -1.3585    2.8809 C   0  0  0  0  0  0  0  0  0  0  0  0
    6.7697    1.2439    0.8686 O   0  0  0  0  0  0  0  0  0  0  0  0
    7.5900    2.0456    1.7120 C   0  0  0  0  0  0  0  0  0  0  0  0
    3.9489    0.5285    0.2089 N   0  0  0  0  0  0  0  0  0  0  0  0
    3.8200    1.8688   -0.3590 C   0  0  0  0  0  0  0  0  0  0  0  0
    3.6537   -0.6230   -0.5287 C   0  0  0  0  0  0  0  0  0  0  0  0
    4.0779   -1.7246   -0.1842 O   0  0  0  0  0  0  0  0  0  0  0  0
    2.8259   -0.4837   -1.8467 C   0  0  1  0  0  0  0  0  0  0  0  0
    2.4340   -1.8363   -2.5166 C   0  0  0  0  0  0  0  0  0  0  0  0
    3.6472   -2.6099   -3.0399 C   0  0  0  0  0  0  0  0  0  0  0  0
    1.5661   -2.7345   -1.6304 C   0  0  0  0  0  0  0  0  0  0  0  0
    1.6210    0.3373   -1.6482 N   0  0  0  0  0  0  0  0  0  0  0  0
    1.0670    1.0733   -2.6652 C   0  0  0  0  0  0  0  0  0  0  0  0
    1.6124    1.1553   -3.7702 O   0  0  0  0  0  0  0  0  0  0  0  0
   -0.3272    1.7259   -2.4281 C   0  0  1  0  0  0  0  0  0  0  0  0
   -1.5188    0.9325   -3.0517 C   0  0  0  0  0  0  0  0  0  0  0  0
   -1.5634   -0.5603   -2.7233 C   0  0  0  0  0  0  0  0  0  0  0  0
   -1.5551    1.0962   -4.5801 C   0  0  0  0  0  0  0  0  0  0  0  0
   -0.6331    2.2736   -1.0774 N   0  0  0  0  0  0  0  0  0  0  0  0
   -1.2322    3.6036   -1.0579 C   0  0  0  0  0  0  0  0  0  0  0  0
   -0.8305    1.4232   -0.0021 C   0  0  0  0  0  0  0  0  0  0  0  0
   -0.3829    0.2804    0.0631 O   0  0  0  0  0  0  0  0  0  0  0  0
   -1.5985    1.9760    0.9750 O   0  0  0  0  0  0  0  0  0  0  0  0
   -2.1018    1.0607    1.9585 C   0  0  0  0  0  0  0  0  0  0  0  0
   -3.3612    0.4227    1.4293 C   0  0  0  0  0  0  0  0  0  0  0  0
   -4.5532    1.1548    1.3498 C   0  0  0  0  0  0  0  0  0  0  0  0
   -5.6918    0.5986    0.7644 C   0  0  0  0  0  0  0  0  0  0  0  0
   -5.6537   -0.6922    0.2241 C   0  0  0  0  0  0  0  0  0  0  0  0
   -4.4761   -1.4346    0.3213 C   0  0  0  0  0  0  0  0  0  0  0  0
   -3.3398   -0.8813    0.9174 C   0  0  0  0  0  0  0  0  0  0  0  0
   -6.8264   -1.1741   -0.3886 N   0  0  0  0  0  0  0  0  0  0  0  0
   -6.9172   -2.2215   -1.2816 C   0  0  0  0  0  0  0  0  0  0  0  0
   -5.9429   -2.7700   -1.8017 O   0  0  0  0  0  0  0  0  0  0  0  0
   -8.3641   -2.5150   -1.7988 C   0  0  1  0  0  0  0  0  0  0  0  0
   -8.4327   -3.9164   -2.4547 C   0  0  0  0  0  0  0  0  0  0  0  0
   -7.9230   -5.1280   -1.6547 C   0  0  0  0  0  0  0  0  0  0  0  0
   -8.6011   -5.3991   -0.3125 C   0  0  0  0  0  0  0  0  0  0  0  0
   -8.1723   -4.5188    0.7510 N   0  0  0  0  0  0  0  0  0  0  0  0
   -6.9710   -4.6754    1.3721 C   0  0  0  0  0  0  0  0  0  0  0  0
   -6.0750   -5.4387    1.0376 O   0  0  0  0  0  0  0  0  0  0  0  0
   -6.8210   -3.8412    2.4369 N   0  0  0  0  0  0  0  0  0  0  0  0
   -9.5305   -2.3219   -0.9082 N   0  0  0  0  0  0  0  0  0  0  0  0
   -9.9514   -1.0518   -0.5521 C   0  0  0  0  0  0  0  0  0  0  0  0
   -9.2113   -0.0686   -0.6074 O   0  0  0  0  0  0  0  0  0  0  0  0
  -11.4076   -0.9622   -0.0224 C   0  0  1  0  0  0  0  0  0  0  0  0
  -11.6168   -1.5529    1.3900 C   0  0  0  0  0  0  0  0  0  0  0  0
  -11.8579   -3.0636    1.3564 C   0  0  0  0  0  0  0  0  0  0  0  0
  -10.4936   -1.2116    2.3714 C   0  0  0  0  0  0  0  0  0  0  0  0
  -11.8005    0.4428   -0.0282 N   0  0  0  0  0  0  0  0  0  0  0  0
  -12.2879    1.0355   -1.1768 C   0  0  0  0  0  0  0  0  0  0  0  0
  -12.5111    0.4153   -2.2093 O   0  0  0  0  0  0  0  0  0  0  0  0
  -12.5251    2.5225   -0.9843 C   0  0  0  0  0  0  0  0  0  0  0  0
  -13.2339    3.2126   -2.1564 C   0  0  0  0  0  0  0  0  0  0  0  0
  -14.4225    4.0692   -1.6942 C   0  0  0  0  0  0  0  0  0  0  0  0
  -14.0029    5.2330   -0.7865 C   0  0  0  0  0  0  0  0  0  0  0  0
  -15.1685    5.8177    0.0216 C   0  0  0  0  0  0  0  0  0  0  0  0
  -15.7980    4.8428    0.8989 N   0  0  0  0  0  0  0  0  0  0  0  0
  -15.1865    4.1943    1.9192 C   0  0  0  0  0  0  0  0  0  0  0  0
  -14.0362    4.2770    2.3099 O   0  0  0  0  0  0  0  0  0  0  0  0
  -16.1798    3.2952    2.5220 C   0  0  0  0  0  0  0  0  0  0  0  0
  -17.3252    3.4626    1.8625 C   0  0  0  0  0  0  0  0  0  0  0  0
  -17.0973    4.4585    0.8124 C   0  0  0  0  0  0  0  0  0  0  0  0
  -17.9571    4.8264    0.0340 O   0  0  0  0  0  0  0  0  0  0  0  0
    5.4586   -0.7109    5.6718 H   0  0  0  0  0  0  0  0  0  0  0  0
    5.9110   -1.2946    4.0642 H   0  0  0  0  0  0  0  0  0  0  0  0
    4.4876   -1.9572    4.8832 H   0  0  0  0  0  0  0  0  0  0  0  0
    4.7278    1.0143    4.1524 H   0  0  0  0  0  0  0  0  0  0  0  0
    3.3255    0.1805    4.7747 H   0  0  0  0  0  0  0  0  0  0  0  0
    2.7259    0.4063    2.6183 H   0  0  0  0  0  0  0  0  0  0  0  0
    2.6282   -1.9635    3.3647 H   0  0  0  0  0  0  0  0  0  0  0  0
    2.5153   -1.7268    1.6423 H   0  0  0  0  0  0  0  0  0  0  0  0
    4.0381   -2.3171    2.3577 H   0  0  0  0  0  0  0  0  0  0  0  0
    4.5475    1.5193    1.8803 H   0  0  0  0  0  0  0  0  0  0  0  0
    6.4483    0.2051    2.6352 H   0  0  0  0  0  0  0  0  0  0  0  0
    6.5399   -1.0442   -0.1329 H   0  0  0  0  0  0  0  0  0  0  0  0
    5.9590   -1.9828    1.2880 H   0  0  0  0  0  0  0  0  0  0  0  0
    8.2384   -2.4723   -1.5541 H   0  0  0  0  0  0  0  0  0  0  0  0
    7.0619   -3.2624   -0.4681 H   0  0  0  0  0  0  0  0  0  0  0  0
    8.6085   -5.0206    0.1105 H   0  0  0  0  0  0  0  0  0  0  0  0
    8.9076   -4.8265   -1.6322 H   0  0  0  0  0  0  0  0  0  0  0  0
   10.9851   -4.6056    0.0830 H   0  0  0  0  0  0  0  0  0  0  0  0
   10.8278   -3.4466   -1.2348 H   0  0  0  0  0  0  0  0  0  0  0  0
   10.1108   -3.1292    1.7055 H   0  0  0  0  0  0  0  0  0  0  0  0
   12.1560   -2.1213    0.4974 H   0  0  0  0  0  0  0  0  0  0  0  0
   10.6296   -1.2723   -1.5054 H   0  0  0  0  0  0  0  0  0  0  0  0
   10.5521    1.2118    0.3029 H   0  0  0  0  0  0  0  0  0  0  0  0
   10.2113    1.1680   -1.4232 H   0  0  0  0  0  0  0  0  0  0  0  0
    9.1552    0.3128   -0.3104 H   0  0  0  0  0  0  0  0  0  0  0  0
   12.8956    0.3536    0.7421 H   0  0  0  0  0  0  0  0  0  0  0  0
   14.6916    1.1757   -1.4496 H   0  0  0  0  0  0  0  0  0  0  0  0
   15.1370   -1.2566   -1.1868 H   0  0  0  0  0  0  0  0  0  0  0  0
   15.4024   -1.0452    0.5452 H   0  0  0  0  0  0  0  0  0  0  0  0
   16.5157   -0.3076   -0.6240 H   0  0  0  0  0  0  0  0  0  0  0  0
   16.2259    1.7519    0.5759 H   0  0  0  0  0  0  0  0  0  0  0  0
   12.5876    2.7690    1.0131 H   0  0  0  0  0  0  0  0  0  0  0  0
   11.8362    5.0934    0.7081 H   0  0  0  0  0  0  0  0  0  0  0  0
   13.4348    6.8413   -0.0273 H   0  0  0  0  0  0  0  0  0  0  0  0
   15.8006    6.2459   -0.4708 H   0  0  0  0  0  0  0  0  0  0  0  0
   16.5732    3.9244   -0.1912 H   0  0  0  0  0  0  0  0  0  0  0  0
   14.7892    2.0561    2.5133 H   0  0  0  0  0  0  0  0  0  0  0  0
   11.9948   -0.5889    3.6465 H   0  0  0  0  0  0  0  0  0  0  0  0
   12.8176   -1.8109    2.6589 H   0  0  0  0  0  0  0  0  0  0  0  0
   11.1589   -2.1079    3.2814 H   0  0  0  0  0  0  0  0  0  0  0  0
    6.9882    2.5091    2.4999 H   0  0  0  0  0  0  0  0  0  0  0  0
    8.0387    2.8341    1.1043 H   0  0  0  0  0  0  0  0  0  0  0  0
    8.3965    1.4496    2.1504 H   0  0  0  0  0  0  0  0  0  0  0  0
    4.7265    2.4428   -0.1496 H   0  0  0  0  0  0  0  0  0  0  0  0
    2.9651    2.3625    0.1095 H   0  0  0  0  0  0  0  0  0  0  0  0
    3.6981    1.8605   -1.4414 H   0  0  0  0  0  0  0  0  0  0  0  0
    3.4762    0.0405   -2.5589 H   0  0  0  0  0  0  0  0  0  0  0  0
    1.8271   -1.5957   -3.4012 H   0  0  0  0  0  0  0  0  0  0  0  0
    3.3220   -3.4363   -3.6820 H   0  0  0  0  0  0  0  0  0  0  0  0
    4.2972   -1.9600   -3.6376 H   0  0  0  0  0  0  0  0  0  0  0  0
    4.2474   -3.0443   -2.2322 H   0  0  0  0  0  0  0  0  0  0  0  0
    0.6765   -2.2086   -1.2683 H   0  0  0  0  0  0  0  0  0  0  0  0
    2.1118   -3.1104   -0.7602 H   0  0  0  0  0  0  0  0  0  0  0  0
    1.2196   -3.6056   -2.1979 H   0  0  0  0  0  0  0  0  0  0  0  0
    1.0289    0.1097   -0.8499 H   0  0  0  0  0  0  0  0  0  0  0  0
   -0.2281    2.6391   -3.0369 H   0  0  0  0  0  0  0  0  0  0  0  0
   -2.4541    1.3712   -2.6770 H   0  0  0  0  0  0  0  0  0  0  0  0
   -0.6644   -1.0801   -3.0662 H   0  0  0  0  0  0  0  0  0  0  0  0
   -1.6880   -0.7350   -1.6535 H   0  0  0  0  0  0  0  0  0  0  0  0
   -2.4230   -1.0370   -3.2134 H   0  0  0  0  0  0  0  0  0  0  0  0
   -1.5966    2.1559   -4.8589 H   0  0  0  0  0  0  0  0  0  0  0  0
   -2.4463    0.6139   -4.9991 H   0  0  0  0  0  0  0  0  0  0  0  0
   -0.6771    0.6465   -5.0554 H   0  0  0  0  0  0  0  0  0  0  0  0
   -0.6481    4.2834   -1.6837 H   0  0  0  0  0  0  0  0  0  0  0  0
   -2.2576    3.5380   -1.4361 H   0  0  0  0  0  0  0  0  0  0  0  0
   -1.2520    4.0191   -0.0453 H   0  0  0  0  0  0  0  0  0  0  0  0
   -1.3479    0.3217    2.2591 H   0  0  0  0  0  0  0  0  0  0  0  0
   -2.3386    1.6411    2.8591 H   0  0  0  0  0  0  0  0  0  0  0  0
   -4.5913    2.1772    1.7217 H   0  0  0  0  0  0  0  0  0  0  0  0
   -6.5964    1.1983    0.6941 H   0  0  0  0  0  0  0  0  0  0  0  0
   -4.4171   -2.4526   -0.0557 H   0  0  0  0  0  0  0  0  0  0  0  0
   -2.4244   -1.4690    0.9477 H   0  0  0  0  0  0  0  0  0  0  0  0
   -7.6456   -0.5700   -0.3407 H   0  0  0  0  0  0  0  0  0  0  0  0
   -8.5151   -1.7872   -2.6092 H   0  0  0  0  0  0  0  0  0  0  0  0
   -7.8466   -3.8823   -3.3816 H   0  0  0  0  0  0  0  0  0  0  0  0
   -9.4655   -4.1214   -2.7713 H   0  0  0  0  0  0  0  0  0  0  0  0
   -8.0928   -6.0107   -2.2872 H   0  0  0  0  0  0  0  0  0  0  0  0
   -6.8372   -5.0719   -1.5248 H   0  0  0  0  0  0  0  0  0  0  0  0
   -9.6892   -5.3102   -0.4080 H   0  0  0  0  0  0  0  0  0  0  0  0
   -8.3798   -6.4265    0.0056 H   0  0  0  0  0  0  0  0  0  0  0  0
   -8.8786   -4.0050    1.2610 H   0  0  0  0  0  0  0  0  0  0  0  0
   -7.6230   -3.6709    3.0259 H   0  0  0  0  0  0  0  0  0  0  0  0
   -5.9545   -4.0055    2.9325 H   0  0  0  0  0  0  0  0  0  0  0  0
  -10.3100   -2.9199   -1.1394 H   0  0  0  0  0  0  0  0  0  0  0  0
  -12.0526   -1.4858   -0.7410 H   0  0  0  0  0  0  0  0  0  0  0  0
  -12.5376   -1.1152    1.8023 H   0  0  0  0  0  0  0  0  0  0  0  0
  -10.9915   -3.6144    0.9879 H   0  0  0  0  0  0  0  0  0  0  0  0
  -12.7177   -3.3043    0.7211 H   0  0  0  0  0  0  0  0  0  0  0  0
  -12.0828   -3.4399    2.3613 H   0  0  0  0  0  0  0  0  0  0  0  0
  -10.7395   -1.5701    3.3777 H   0  0  0  0  0  0  0  0  0  0  0  0
  -10.3436   -0.1294    2.4388 H   0  0  0  0  0  0  0  0  0  0  0  0
   -9.5403   -1.6708    2.0854 H   0  0  0  0  0  0  0  0  0  0  0  0
  -11.2759    1.0587    0.5866 H   0  0  0  0  0  0  0  0  0  0  0  0
  -13.1158    2.6246   -0.0641 H   0  0  0  0  0  0  0  0  0  0  0  0
  -11.5529    3.0015   -0.8176 H   0  0  0  0  0  0  0  0  0  0  0  0
  -12.5172    3.8500   -2.6879 H   0  0  0  0  0  0  0  0  0  0  0  0
  -13.6063    2.4868   -2.8900 H   0  0  0  0  0  0  0  0  0  0  0  0
  -15.1398    3.4112   -1.1936 H   0  0  0  0  0  0  0  0  0  0  0  0
  -14.9328    4.4749   -2.5754 H   0  0  0  0  0  0  0  0  0  0  0  0
  -13.5658    6.0271   -1.4038 H   0  0  0  0  0  0  0  0  0  0  0  0
  -13.2178    4.9166   -0.0918 H   0  0  0  0  0  0  0  0  0  0  0  0
  -15.9221    6.2471   -0.6491 H   0  0  0  0  0  0  0  0  0  0  0  0
  -14.7833    6.6219    0.6603 H   0  0  0  0  0  0  0  0  0  0  0  0
  -15.9660    2.6426    3.3487 H   0  0  0  0  0  0  0  0  0  0  0  0
  -18.2687    2.9745    2.0222 H   0  0  0  0  0  0  0  0  0  0  0  0
  1  2  1  0
  2  3  1  0
  3  4  1  0
  3  5  1  0
  5  6  1  0
  6  7  1  0
  7  8  1  0
  8  9  2  0
  8 10  1  0
 10 11  1  0
 11 12  1  0
 12 13  1  0
 13 14  1  0
 14 15  1  0
 15 16  1  0
 16 17  1  0
 16 18  1  0
 18 19  2  0
 18 20  1  0
 20 21  1  0
 21 22  1  0
 21 23  1  0
 23 24  1  0
 24 25  2  0
 25 26  1  0
 26 27  2  0
 27 28  1  0
 28 29  2  0
 23 30  1  0
 15 31  1  0
 31 32  1  0
  6 33  1  0
 33 34  1  0
  5 35  1  0
 35 36  1  0
 35 37  1  0
 37 38  2  0
 37 39  1  0
 39 40  1  0
 40 41  1  0
 40 42  1  0
 39 43  1  0
 43 44  1  0
 44 45  2  0
 44 46  1  0
 46 47  1  0
 47 48  1  0
 47 49  1  0
 46 50  1  0
 50 51  1  0
 50 52  1  0
 52 53  2  0
 52 54  1  0
 54 55  1  0
 55 56  1  0
 56 57  1  0
 57 58  2  0
 58 59  1  0
 59 60  2  0
 60 61  1  0
 59 62  1  0
 62 63  1  0
 63 64  2  0
 63 65  1  0
 65 66  1  0
 66 67  1  0
 67 68  1  0
 68 69  1  0
 69 70  1  0
 70 71  2  0
 70 72  1  0
 65 73  1  0
 73 74  1  0
 74 75  2  0
 74 76  1  0
 76 77  1  0
 77 78  1  0
 77 79  1  0
 76 80  1  0
 80 81  1  0
 81 82  2  0
 81 83  1  0
 83 84  1  0
 84 85  1  0
 85 86  1  0
 86 87  1  0
 87 88  1  0
 88 89  1  0
 89 90  2  0
 89 91  1  0
 91 92  2  0
 92 93  1  0
 93 94  2  0
 14 10  1  0
 29 24  1  0
 61 56  2  0
 93 88  1  0
  1 95  1  0
  1 96  1  0
  1 97  1  0
  2 98  1  0
  2 99  1  0
  3100  1  1
  4101  1  0
  4102  1  0
  4103  1  0
  5104  1  1
  6105  1  1
  7106  1  0
  7107  1  0
 11108  1  0
 11109  1  0
 12110  1  0
 12111  1  0
 13112  1  0
 13113  1  0
 14114  1  1
 15115  1  6
 16116  1  6
 17117  1  0
 17118  1  0
 17119  1  0
 20120  1  0
 21121  1  6
 22122  1  0
 22123  1  0
 22124  1  0
 23125  1  1
 25126  1  0
 26127  1  0
 27128  1  0
 28129  1  0
 29130  1  0
 30131  1  0
 32132  1  0
 32133  1  0
 32134  1  0
 34135  1  0
 34136  1  0
 34137  1  0
 36138  1  0
 36139  1  0
 36140  1  0
 39141  1  6
 40142  1  0
 41143  1  0
 41144  1  0
 41145  1  0
 42146  1  0
 42147  1  0
 42148  1  0
 43149  1  0
 46150  1  6
 47151  1  0
 48152  1  0
 48153  1  0
 48154  1  0
 49155  1  0
 49156  1  0
 49157  1  0
 51158  1  0
 51159  1  0
 51160  1  0
 55161  1  0
 55162  1  0
 57163  1  0
 58164  1  0
 60165  1  0
 61166  1  0
 62167  1  0
 65168  1  6
 66169  1  0
 66170  1  0
 67171  1  0
 67172  1  0
 68173  1  0
 68174  1  0
 69175  1  0
 72176  1  0
 72177  1  0
 73178  1  0
 76179  1  6
 77180  1  0
 78181  1  0
 78182  1  0
 78183  1  0
 79184  1  0
 79185  1  0
 79186  1  0
 80187  1  0
 83188  1  0
 83189  1  0
 84190  1  0
 84191  1  0
 85192  1  0
 85193  1  0
 86194  1  0
 86195  1  0
 87196  1  0
 87197  1  0
 91198  1  0
 92199  1  0
M  END
$$$$

     RDKit          3D

199202  0  0  0  0  0  0  0  0999 V2000
   -8.8989   -3.1854   -4.3212 C   0  0  0  0  0  0  0  0  0  0  0  0
   -7.8705   -4.0554   -3.6180 C   0  0  0  0  0  0  0  0  0  0  0  0
   -7.7073   -3.8538   -2.0891 C   0  0  2  0  0  0  0  0  0  0  0  0
   -9.0160   -4.1648   -1.3593 C   0  0  0  0  0  0  0  0  0  0  0  0
   -7.0207   -2.4855   -1.7115 C   0  0  1  0  0  0  0  0  0  0  0  0
   -7.9960   -1.2583   -1.5246 C   0  0  1  0  0  0  0  0  0  0  0  0
   -8.6707   -1.0741   -0.1546 C   0  0  0  0  0  0  0  0  0  0  0  0
   -7.9112   -0.2537    0.8858 C   0  0  0  0  0  0  0  0  0  0  0  0
   -6.6805   -0.2068    0.9081 O   0  0  0  0  0  0  0  0  0  0  0  0
   -8.6607    0.3562    1.8930 N   0  0  0  0  0  0  0  0  0  0  0  0
   -7.9599    0.8780    3.0618 C   0  0  0  0  0  0  0  0  0  0  0  0
   -8.8171    0.4193    4.2272 C   0  0  0  0  0  0  0  0  0  0  0  0
  -10.2268    0.5618    3.6736 C   0  0  0  0  0  0  0  0  0  0  0  0
  -10.0917    0.1449    2.1967 C   0  0  1  0  0  0  0  0  0  0  0  0
  -11.0975    0.8657    1.2383 C   0  0  1  0  0  0  0  0  0  0  0  0
  -12.4040    0.0384    1.1283 C   0  0  1  0  0  0  0  0  0  0  0  0
  -13.4173    0.2787    2.2454 C   0  0  0  0  0  0  0  0  0  0  0  0
  -13.0658    0.2671   -0.2236 C   0  0  0  0  0  0  0  0  0  0  0  0
  -13.3696   -0.6740   -0.9517 O   0  0  0  0  0  0  0  0  0  0  0  0
  -13.3307    1.5756   -0.5402 N   0  0  0  0  0  0  0  0  0  0  0  0
  -14.0790    1.9519   -1.7420 C   0  0  2  0  0  0  0  0  0  0  0  0
  -13.7863    3.4120   -2.0934 C   0  0  0  0  0  0  0  0  0  0  0  0
  -15.5996    1.6151   -1.6504 C   0  0  1  0  0  0  0  0  0  0  0  0
  -16.3288    2.2948   -0.5044 C   0  0  0  0  0  0  0  0  0  0  0  0
  -16.7806    3.6198   -0.6032 C   0  0  0  0  0  0  0  0  0  0  0  0
  -17.4182    4.2383    0.4737 C   0  0  0  0  0  0  0  0  0  0  0  0
  -17.6207    3.5375    1.6599 C   0  0  0  0  0  0  0  0  0  0  0  0
  -17.1913    2.2172    1.7685 C   0  0  0  0  0  0  0  0  0  0  0  0
  -16.5550    1.5973    0.6920 C   0  0  0  0  0  0  0  0  0  0  0  0
  -16.2543    1.9265   -2.8860 O   0  0  0  0  0  0  0  0  0  0  0  0
  -11.4358    2.1987    1.6593 O   0  0  0  0  0  0  0  0  0  0  0  0
  -10.5243    3.1865    1.1879 C   0  0  0  0  0  0  0  0  0  0  0  0
   -7.4312    0.0142   -1.8781 O   0  0  0  0  0  0  0  0  0  0  0  0
   -7.2939    0.2511   -3.2695 C   0  0  0  0  0  0  0  0  0  0  0  0
   -5.9844   -2.6408   -0.6457 N   0  0  0  0  0  0  0  0  0  0  0  0
   -6.3060   -3.4160    0.5537 C   0  0  0  0  0  0  0  0  0  0  0  0
   -4.8208   -1.8594   -0.7596 C   0  0  0  0  0  0  0  0  0  0  0  0
   -4.5662   -1.1969   -1.7738 O   0  0  0  0  0  0  0  0  0  0  0  0
   -3.7679   -1.9174    0.3778 C   0  0  1  0  0  0  0  0  0  0  0  0
   -2.9043   -3.2021    0.2608 C   0  0  0  0  0  0  0  0  0  0  0  0
   -1.9519   -3.1805   -0.9437 C   0  0  0  0  0  0  0  0  0  0  0  0
   -2.1095   -3.4637    1.5428 C   0  0  0  0  0  0  0  0  0  0  0  0
   -2.9390   -0.7156    0.3360 N   0  0  0  0  0  0  0  0  0  0  0  0
   -2.6304    0.0001    1.4761 C   0  0  0  0  0  0  0  0  0  0  0  0
   -2.9219   -0.3943    2.6033 O   0  0  0  0  0  0  0  0  0  0  0  0
   -1.7786    1.2656    1.2104 C   0  0  1  0  0  0  0  0  0  0  0  0
   -1.9548    2.4003    2.2583 C   0  0  0  0  0  0  0  0  0  0  0  0
   -1.3515    2.1217    3.6365 C   0  0  0  0  0  0  0  0  0  0  0  0
   -3.4321    2.7927    2.4078 C   0  0  0  0  0  0  0  0  0  0  0  0
   -0.3606    0.9073    0.9727 N   0  0  0  0  0  0  0  0  0  0  0  0
    0.3010   -0.0662    1.8335 C   0  0  0  0  0  0  0  0  0  0  0  0
    0.3744    1.6102    0.0339 C   0  0  0  0  0  0  0  0  0  0  0  0
   -0.0866    2.4970   -0.6774 O   0  0  0  0  0  0  0  0  0  0  0  0
    1.6662    1.1965   -0.0097 O   0  0  0  0  0  0  0  0  0  0  0  0
    2.4938    1.8786   -0.9548 C   0  0  0  0  0  0  0  0  0  0  0  0
    3.8264    1.1680   -0.9635 C   0  0  0  0  0  0  0  0  0  0  0  0
    4.8826    1.6067   -0.1570 C   0  0  0  0  0  0  0  0  0  0  0  0
    6.0919    0.9011   -0.1136 C   0  0  0  0  0  0  0  0  0  0  0  0
    6.2653   -0.2626   -0.8638 C   0  0  0  0  0  0  0  0  0  0  0  0
    5.2121   -0.6981   -1.6759 C   0  0  0  0  0  0  0  0  0  0  0  0
    4.0042    0.0078   -1.7256 C   0  0  0  0  0  0  0  0  0  0  0  0
    7.4174   -1.0799   -0.8053 N   0  0  0  0  0  0  0  0  0  0  0  0
    8.6078   -0.8107   -0.1494 C   0  0  0  0  0  0  0  0  0  0  0  0
    8.9117    0.2823    0.3335 O   0  0  0  0  0  0  0  0  0  0  0  0
    9.5126   -2.0564    0.1078 C   0  0  1  0  0  0  0  0  0  0  0  0
    9.5552   -3.1513   -0.9741 C   0  0  0  0  0  0  0  0  0  0  0  0
   10.3976   -4.3626   -0.5336 C   0  0  0  0  0  0  0  0  0  0  0  0
   10.3458   -5.5168   -1.5353 C   0  0  0  0  0  0  0  0  0  0  0  0
   11.1064   -5.2519   -2.7383 N   0  0  0  0  0  0  0  0  0  0  0  0
   12.4541   -5.4583   -2.7693 C   0  0  0  0  0  0  0  0  0  0  0  0
   13.1350   -5.9168   -1.8647 O   0  0  0  0  0  0  0  0  0  0  0  0
   12.9956   -5.1060   -3.9633 N   0  0  0  0  0  0  0  0  0  0  0  0
   10.8398   -1.6137    0.5391 N   0  0  0  0  0  0  0  0  0  0  0  0
   11.7814   -1.1020   -0.3320 C   0  0  0  0  0  0  0  0  0  0  0  0
   11.6250   -1.0532   -1.5522 O   0  0  0  0  0  0  0  0  0  0  0  0
   13.0875   -0.6459    0.3582 C   0  0  1  0  0  0  0  0  0  0  0  0
   13.8518   -1.8643    0.9369 C   0  0  0  0  0  0  0  0  0  0  0  0
   14.4490   -2.7646   -0.1502 C   0  0  0  0  0  0  0  0  0  0  0  0
   14.9476   -1.4419    1.9195 C   0  0  0  0  0  0  0  0  0  0  0  0
   13.8830    0.1232   -0.5936 N   0  0  0  0  0  0  0  0  0  0  0  0
   14.6134    1.2260   -0.2208 C   0  0  0  0  0  0  0  0  0  0  0  0
   14.6709    1.6309    0.9346 O   0  0  0  0  0  0  0  0  0  0  0  0
   15.3290    1.8925   -1.3802 C   0  0  0  0  0  0  0  0  0  0  0  0
   16.4139    2.8791   -0.9353 C   0  0  0  0  0  0  0  0  0  0  0  0
   17.6027    2.1781   -0.2711 C   0  0  0  0  0  0  0  0  0  0  0  0
   18.8373    3.0673   -0.0762 C   0  0  0  0  0  0  0  0  0  0  0  0
   18.7061    4.1289    1.0214 C   0  0  0  0  0  0  0  0  0  0  0  0
   17.9199    5.2849    0.6407 N   0  0  0  0  0  0  0  0  0  0  0  0
   16.8969    5.7868    1.3802 C   0  0  0  0  0  0  0  0  0  0  0  0
   16.4204    5.3747    2.4215 O   0  0  0  0  0  0  0  0  0  0  0  0
   16.4517    7.0178    0.7183 C   0  0  0  0  0  0  0  0  0  0  0  0
   17.2783    7.2526   -0.3018 C   0  0  0  0  0  0  0  0  0  0  0  0
   18.2711    6.1726   -0.3242 C   0  0  0  0  0  0  0  0  0  0  0  0
   19.2319    6.1591   -1.0732 O   0  0  0  0  0  0  0  0  0  0  0  0
   -8.6090   -2.1327   -4.3107 H   0  0  0  0  0  0  0  0  0  0  0  0
   -9.8921   -3.2850   -3.8745 H   0  0  0  0  0  0  0  0  0  0  0  0
   -8.9800   -3.4843   -5.3709 H   0  0  0  0  0  0  0  0  0  0  0  0
   -8.1432   -5.1046   -3.7992 H   0  0  0  0  0  0  0  0  0  0  0  0
   -6.8977   -3.9150   -4.1082 H   0  0  0  0  0  0  0  0  0  0  0  0
   -7.0029   -4.6510   -1.8121 H   0  0  0  0  0  0  0  0  0  0  0  0
   -8.8708   -4.2127   -0.2772 H   0  0  0  0  0  0  0  0  0  0  0  0
   -9.4045   -5.1413   -1.6684 H   0  0  0  0  0  0  0  0  0  0  0  0
   -9.7966   -3.4266   -1.5645 H   0  0  0  0  0  0  0  0  0  0  0  0
   -6.4283   -2.2465   -2.6002 H   0  0  0  0  0  0  0  0  0  0  0  0
   -8.8271   -1.4191   -2.2207 H   0  0  0  0  0  0  0  0  0  0  0  0
   -8.9539   -2.0274    0.2957 H   0  0  0  0  0  0  0  0  0  0  0  0
   -9.6048   -0.5617   -0.3706 H   0  0  0  0  0  0  0  0  0  0  0  0
   -6.9315    0.5170    3.1499 H   0  0  0  0  0  0  0  0  0  0  0  0
   -7.9496    1.9718    2.9851 H   0  0  0  0  0  0  0  0  0  0  0  0
   -8.6128   -0.6338    4.4561 H   0  0  0  0  0  0  0  0  0  0  0  0
   -8.6534    1.0077    5.1333 H   0  0  0  0  0  0  0  0  0  0  0  0
  -10.5422    1.6033    3.7899 H   0  0  0  0  0  0  0  0  0  0  0  0
  -10.9398   -0.0640    4.2182 H   0  0  0  0  0  0  0  0  0  0  0  0
  -10.2227   -0.9417    2.1227 H   0  0  0  0  0  0  0  0  0  0  0  0
  -10.6683    0.9465    0.2368 H   0  0  0  0  0  0  0  0  0  0  0  0
  -12.1419   -1.0300    1.1278 H   0  0  0  0  0  0  0  0  0  0  0  0
  -13.7681    1.3145    2.2741 H   0  0  0  0  0  0  0  0  0  0  0  0
  -14.2968   -0.3579    2.1002 H   0  0  0  0  0  0  0  0  0  0  0  0
  -12.9990    0.0321    3.2223 H   0  0  0  0  0  0  0  0  0  0  0  0
  -13.2373    2.2684    0.2001 H   0  0  0  0  0  0  0  0  0  0  0  0
  -13.6766    1.3499   -2.5682 H   0  0  0  0  0  0  0  0  0  0  0  0
  -12.7184    3.5438   -2.3000 H   0  0  0  0  0  0  0  0  0  0  0  0
  -14.3399    3.7329   -2.9815 H   0  0  0  0  0  0  0  0  0  0  0  0
  -14.0307    4.0857   -1.2636 H   0  0  0  0  0  0  0  0  0  0  0  0
  -15.7085    0.5312   -1.5290 H   0  0  0  0  0  0  0  0  0  0  0  0
  -16.6322    4.1831   -1.5228 H   0  0  0  0  0  0  0  0  0  0  0  0
  -17.7564    5.2676    0.3854 H   0  0  0  0  0  0  0  0  0  0  0  0
  -18.1153    4.0205    2.4991 H   0  0  0  0  0  0  0  0  0  0  0  0
  -17.3535    1.6677    2.6928 H   0  0  0  0  0  0  0  0  0  0  0  0
  -16.2318    0.5642    0.7936 H   0  0  0  0  0  0  0  0  0  0  0  0
  -17.2091    1.8289   -2.7202 H   0  0  0  0  0  0  0  0  0  0  0  0
   -9.5180    3.0220    1.5821 H   0  0  0  0  0  0  0  0  0  0  0  0
  -10.8762    4.1623    1.5353 H   0  0  0  0  0  0  0  0  0  0  0  0
  -10.5075    3.1966    0.0939 H   0  0  0  0  0  0  0  0  0  0  0  0
   -6.9048    1.2634   -3.4060 H   0  0  0  0  0  0  0  0  0  0  0  0
   -8.2668    0.1936   -3.7645 H   0  0  0  0  0  0  0  0  0  0  0  0
   -6.5938   -0.4482   -3.7306 H   0  0  0  0  0  0  0  0  0  0  0  0
   -7.1145   -2.9372    1.1034 H   0  0  0  0  0  0  0  0  0  0  0  0
   -5.4657   -3.5288    1.2329 H   0  0  0  0  0  0  0  0  0  0  0  0
   -6.6022   -4.4293    0.2744 H   0  0  0  0  0  0  0  0  0  0  0  0
   -4.3022   -1.8980    1.3331 H   0  0  0  0  0  0  0  0  0  0  0  0
   -3.5694   -4.0621    0.1177 H   0  0  0  0  0  0  0  0  0  0  0  0
   -2.5066   -3.0855   -1.8805 H   0  0  0  0  0  0  0  0  0  0  0  0
   -1.2343   -2.3563   -0.8834 H   0  0  0  0  0  0  0  0  0  0  0  0
   -1.3834   -4.1170   -0.9956 H   0  0  0  0  0  0  0  0  0  0  0  0
   -1.6013   -4.4321    1.4891 H   0  0  0  0  0  0  0  0  0  0  0  0
   -1.3442   -2.6986    1.7071 H   0  0  0  0  0  0  0  0  0  0  0  0
   -2.7726   -3.4824    2.4138 H   0  0  0  0  0  0  0  0  0  0  0  0
   -2.8689   -0.2605   -0.5703 H   0  0  0  0  0  0  0  0  0  0  0  0
   -2.1610    1.6768    0.2671 H   0  0  0  0  0  0  0  0  0  0  0  0
   -1.4319    3.2802    1.8631 H   0  0  0  0  0  0  0  0  0  0  0  0
   -1.5167    2.9764    4.3043 H   0  0  0  0  0  0  0  0  0  0  0  0
   -0.2697    1.9797    3.5775 H   0  0  0  0  0  0  0  0  0  0  0  0
   -1.7921    1.2444    4.1157 H   0  0  0  0  0  0  0  0  0  0  0  0
   -4.0130    2.0053    2.8926 H   0  0  0  0  0  0  0  0  0  0  0  0
   -3.8843    3.0018    1.4348 H   0  0  0  0  0  0  0  0  0  0  0  0
   -3.5287    3.6953    3.0234 H   0  0  0  0  0  0  0  0  0  0  0  0
    0.7692   -0.8306    1.2048 H   0  0  0  0  0  0  0  0  0  0  0  0
    1.0836    0.4379    2.4116 H   0  0  0  0  0  0  0  0  0  0  0  0
   -0.3887   -0.5569    2.5240 H   0  0  0  0  0  0  0  0  0  0  0  0
    2.6160    2.9257   -0.6523 H   0  0  0  0  0  0  0  0  0  0  0  0
    2.0470    1.8481   -1.9548 H   0  0  0  0  0  0  0  0  0  0  0  0
    4.7702    2.4939    0.4626 H   0  0  0  0  0  0  0  0  0  0  0  0
    6.8695    1.2736    0.5452 H   0  0  0  0  0  0  0  0  0  0  0  0
    5.3027   -1.5998   -2.2723 H   0  0  0  0  0  0  0  0  0  0  0  0
    3.1943   -0.3625   -2.3531 H   0  0  0  0  0  0  0  0  0  0  0  0
    7.3594   -1.9315   -1.3419 H   0  0  0  0  0  0  0  0  0  0  0  0
    9.0772   -2.5151    1.0067 H   0  0  0  0  0  0  0  0  0  0  0  0
    8.5426   -3.5162   -1.1714 H   0  0  0  0  0  0  0  0  0  0  0  0
    9.9236   -2.7533   -1.9239 H   0  0  0  0  0  0  0  0  0  0  0  0
   10.0085   -4.7265    0.4261 H   0  0  0  0  0  0  0  0  0  0  0  0
   11.4394   -4.0660   -0.3663 H   0  0  0  0  0  0  0  0  0  0  0  0
    9.3138   -5.7254   -1.8359 H   0  0  0  0  0  0  0  0  0  0  0  0
   10.7463   -6.4212   -1.0631 H   0  0  0  0  0  0  0  0  0  0  0  0
   10.7829   -4.5166   -3.3498 H   0  0  0  0  0  0  0  0  0  0  0  0
   12.4409   -5.3343   -4.7765 H   0  0  0  0  0  0  0  0  0  0  0  0
   13.9686   -5.3783   -4.0379 H   0  0  0  0  0  0  0  0  0  0  0  0
   10.8947   -1.2639    1.4897 H   0  0  0  0  0  0  0  0  0  0  0  0
   12.7933    0.0241    1.1760 H   0  0  0  0  0  0  0  0  0  0  0  0
   13.1405   -2.4761    1.5071 H   0  0  0  0  0  0  0  0  0  0  0  0
   13.6888   -3.0824   -0.8682 H   0  0  0  0  0  0  0  0  0  0  0  0
   15.2491   -2.2584   -0.7015 H   0  0  0  0  0  0  0  0  0  0  0  0
   14.8793   -3.6679    0.2977 H   0  0  0  0  0  0  0  0  0  0  0  0
   15.7638   -0.9129    1.4159 H   0  0  0  0  0  0  0  0  0  0  0  0
   14.5419   -0.7909    2.7002 H   0  0  0  0  0  0  0  0  0  0  0  0
   15.3787   -2.3200    2.4133 H   0  0  0  0  0  0  0  0  0  0  0  0
   13.7151   -0.0668   -1.5773 H   0  0  0  0  0  0  0  0  0  0  0  0
   15.7645    1.1224   -2.0288 H   0  0  0  0  0  0  0  0  0  0  0  0
   14.5704    2.4319   -1.9612 H   0  0  0  0  0  0  0  0  0  0  0  0
   16.7616    3.4263   -1.8202 H   0  0  0  0  0  0  0  0  0  0  0  0
   15.9766    3.6130   -0.2495 H   0  0  0  0  0  0  0  0  0  0  0  0
   17.9064    1.3296   -0.8986 H   0  0  0  0  0  0  0  0  0  0  0  0
   17.3042    1.7570    0.6955 H   0  0  0  0  0  0  0  0  0  0  0  0
   19.6662    2.4058    0.2117 H   0  0  0  0  0  0  0  0  0  0  0  0
   19.1237    3.5219   -1.0327 H   0  0  0  0  0  0  0  0  0  0  0  0
   19.7108    4.5015    1.2595 H   0  0  0  0  0  0  0  0  0  0  0  0
   18.2981    3.6848    1.9365 H   0  0  0  0  0  0  0  0  0  0  0  0
   15.6149    7.6019    1.0576 H   0  0  0  0  0  0  0  0  0  0  0  0
   17.2788    8.0756   -0.9925 H   0  0  0  0  0  0  0  0  0  0  0  0
  1  2  1  0
  2  3  1  0
  3  4  1  0
  3  5  1  0
  5  6  1  0
  6  7  1  0
  7  8  1  0
  8  9  2  0
  8 10  1  0
 10 11  1  0
 11 12  1  0
 12 13  1  0
 13 14  1  0
 14 15  1  0
 15 16  1  0
 16 17  1  0
 16 18  1  0
 18 19  2  0
 18 20  1  0
 20 21  1  0
 21 22  1  0
 21 23  1  0
 23 24  1  0
 24 25  2  0
 25 26  1  0
 26 27  2  0
 27 28  1  0
 28 29  2  0
 23 30  1  0
 15 31  1  0
 31 32  1  0
  6 33  1  0
 33 34  1  0
  5 35  1  0
 35 36  1  0
 35 37  1  0
 37 38  2  0
 37 39  1  0
 39 40  1  0
 40 41  1  0
 40 42  1  0
 39 43  1  0
 43 44  1  0
 44 45  2  0
 44 46  1  0
 46 47  1  0
 47 48  1  0
 47 49  1  0
 46 50  1  0
 50 51  1  0
 50 52  1  0
 52 53  2  0
 52 54  1  0
 54 55  1  0
 55 56  1  0
 56 57  1  0
 57 58  2  0
 58 59  1  0
 59 60  2  0
 60 61  1  0
 59 62  1  0
 62 63  1  0
 63 64  2  0
 63 65  1  0
 65 66  1  0
 66 67  1  0
 67 68  1  0
 68 69  1  0
 69 70  1  0
 70 71  2  0
 70 72  1  0
 65 73  1  0
 73 74  1  0
 74 75  2  0
 74 76  1  0
 76 77  1  0
 77 78  1  0
 77 79  1  0
 76 80  1  0
 80 81  1  0
 81 82  2  0
 81 83  1  0
 83 84  1  0
 84 85  1  0
 85 86  1  0
 86 87  1  0
 87 88  1  0
 88 89  1  0
 89 90  2  0
 89 91  1  0
 91 92  2  0
 92 93  1  0
 93 94  2  0
 14 10  1  0
 29 24  1  0
 61 56  2  0
 93 88  1  0
  1 95  1  0
  1 96  1  0
  1 97  1  0
  2 98  1  0
  2 99  1  0
  3100  1  1
  4101  1  0
  4102  1  0
  4103  1  0
  5104  1  6
  6105  1  6
  7106  1  0
  7107  1  0
 11108  1  0
 11109  1  0
 12110  1  0
 12111  1  0
 13112  1  0
 13113  1  0
 14114  1  1
 15115  1  6
 16116  1  6
 17117  1  0
 17118  1  0
 17119  1  0
 20120  1  0
 21121  1  6
 22122  1  0
 22123  1  0
 22124  1  0
 23125  1  1
 25126  1  0
 26127  1  0
 27128  1  0
 28129  1  0
 29130  1  0
 30131  1  0
 32132  1  0
 32133  1  0
 32134  1  0
 34135  1  0
 34136  1  0
 34137  1  0
 36138  1  0
 36139  1  0
 36140  1  0
 39141  1  1
 40142  1  0
 41143  1  0
 41144  1  0
 41145  1  0
 42146  1  0
 42147  1  0
 42148  1  0
 43149  1  0
 46150  1  6
 47151  1  0
 48152  1  0
 48153  1  0
 48154  1  0
 49155  1  0
 49156  1  0
 49157  1  0
 51158  1  0
 51159  1  0
 51160  1  0
 55161  1  0
 55162  1  0
 57163  1  0
 58164  1  0
 60165  1  0
 61166  1  0
 62167  1  0
 65168  1  1
 66169  1  0
 66170  1  0
 67171  1  0
 67172  1  0
 68173  1  0
 68174  1  0
 69175  1  0
 72176  1  0
 72177  1  0
 73178  1  0
 76179  1  1
 77180  1  0
 78181  1  0
 78182  1  0
 78183  1  0
 79184  1  0
 79185  1  0
 79186  1  0
 80187  1  0
 83188  1  0
 83189  1  0
 84190  1  0
 84191  1  0
 85192  1  0
 85193  1  0
 86194  1  0
 86195  1  0
 87196  1  0
 87197  1  0
 91198  1  0
 92199  1  0
M  END
$$$$

     RDKit          3D

199202  0  0  0  0  0  0  0  0999 V2000
    7.4750   -1.9171   -3.2821 C   0  0  0  0  0  0  0  0  0  0  0  0
    7.3391   -1.0236   -2.0496 C   0  0  0  0  0  0  0  0  0  0  0  0
    6.4387   -1.6247   -0.9479 C   0  0  2  0  0  0  0  0  0  0  0  0
    5.0267   -1.9337   -1.4588 C   0  0  0  0  0  0  0  0  0  0  0  0
    6.3974   -0.8974    0.4513 C   0  0  1  0  0  0  0  0  0  0  0  0
    7.7494   -0.3557    1.0328 C   0  0  1  0  0  0  0  0  0  0  0  0
    8.7748   -1.4959    1.1789 C   0  0  0  0  0  0  0  0  0  0  0  0
   10.0461   -0.9957    1.8395 C   0  0  0  0  0  0  0  0  0  0  0  0
    9.9981   -0.2406    2.8127 O   0  0  0  0  0  0  0  0  0  0  0  0
   11.2485   -1.4206    1.3160 N   0  0  0  0  0  0  0  0  0  0  0  0
   11.4555   -2.4583    0.3172 C   0  0  0  0  0  0  0  0  0  0  0  0
   12.9460   -2.4550    0.0310 C   0  0  0  0  0  0  0  0  0  0  0  0
   13.5576   -1.8706    1.2950 C   0  0  0  0  0  0  0  0  0  0  0  0
   12.5255   -0.8589    1.7873 C   0  0  1  0  0  0  0  0  0  0  0  0
   12.7249    0.6093    1.2917 C   0  0  1  0  0  0  0  0  0  0  0  0
   13.8901    1.3864    1.9573 C   0  0  1  0  0  0  0  0  0  0  0  0
   13.8661    1.2933    3.4838 C   0  0  0  0  0  0  0  0  0  0  0  0
   15.3010    1.1080    1.4224 C   0  0  0  0  0  0  0  0  0  0  0  0
   16.2540    0.8326    2.1460 O   0  0  0  0  0  0  0  0  0  0  0  0
   15.4323    1.3191    0.0727 N   0  0  0  0  0  0  0  0  0  0  0  0
   16.7143    1.4071   -0.6209 C   0  0  2  0  0  0  0  0  0  0  0  0
   16.5037    2.0786   -1.9815 C   0  0  0  0  0  0  0  0  0  0  0  0
   17.5538    0.0981   -0.6556 C   0  0  1  0  0  0  0  0  0  0  0  0
   16.8956   -1.1712   -1.1607 C   0  0  0  0  0  0  0  0  0  0  0  0
   16.8720   -2.3090   -0.3351 C   0  0  0  0  0  0  0  0  0  0  0  0
   16.3439   -3.5177   -0.7933 C   0  0  0  0  0  0  0  0  0  0  0  0
   15.8270   -3.6085   -2.0838 C   0  0  0  0  0  0  0  0  0  0  0  0
   15.8499   -2.4929   -2.9170 C   0  0  0  0  0  0  0  0  0  0  0  0
   16.3911   -1.2873   -2.4644 C   0  0  0  0  0  0  0  0  0  0  0  0
   18.7553    0.3052   -1.4154 O   0  0  0  0  0  0  0  0  0  0  0  0
   12.8794    0.6812   -0.1445 O   0  0  0  0  0  0  0  0  0  0  0  0
   11.6818    1.0312   -0.8309 C   0  0  0  0  0  0  0  0  0  0  0  0
    8.2985    0.6556    0.1815 O   0  0  0  0  0  0  0  0  0  0  0  0
    8.4421    1.9119    0.8327 C   0  0  0  0  0  0  0  0  0  0  0  0
    5.2554    0.0423    0.6844 N   0  0  0  0  0  0  0  0  0  0  0  0
    4.5446   -0.1201    1.9541 C   0  0  0  0  0  0  0  0  0  0  0  0
    5.0761    1.1919   -0.0984 C   0  0  0  0  0  0  0  0  0  0  0  0
    5.6940    1.3813   -1.1472 O   0  0  0  0  0  0  0  0  0  0  0  0
    3.9470    2.1872    0.3022 C   0  0  1  0  0  0  0  0  0  0  0  0
    4.1980    3.6322   -0.2078 C   0  0  0  0  0  0  0  0  0  0  0  0
    3.0619    4.5769    0.2078 C   0  0  0  0  0  0  0  0  0  0  0  0
    5.5187    4.2013    0.3177 C   0  0  0  0  0  0  0  0  0  0  0  0
    2.7259    1.6509   -0.3101 N   0  0  0  0  0  0  0  0  0  0  0  0
    1.5251    1.5610    0.3640 C   0  0  0  0  0  0  0  0  0  0  0  0
    1.4176    1.8797    1.5456 O   0  0  0  0  0  0  0  0  0  0  0  0
    0.3379    1.0661   -0.5073 C   0  0  1  0  0  0  0  0  0  0  0  0
    0.4256   -0.4132   -0.9902 C   0  0  0  0  0  0  0  0  0  0  0  0
    1.3405   -1.3165   -0.1554 C   0  0  0  0  0  0  0  0  0  0  0  0
    0.8680   -0.4870   -2.4588 C   0  0  0  0  0  0  0  0  0  0  0  0
   -0.9557    1.4326    0.1117 N   0  0  0  0  0  0  0  0  0  0  0  0
   -1.4758    2.7564   -0.2053 C   0  0  0  0  0  0  0  0  0  0  0  0
   -1.4830    0.6718    1.1473 C   0  0  0  0  0  0  0  0  0  0  0  0
   -1.0096   -0.3865    1.5354 O   0  0  0  0  0  0  0  0  0  0  0  0
   -2.6236    1.2053    1.6554 O   0  0  0  0  0  0  0  0  0  0  0  0
   -3.3446    0.4019    2.5974 C   0  0  0  0  0  0  0  0  0  0  0  0
   -4.5690   -0.1439    1.9064 C   0  0  0  0  0  0  0  0  0  0  0  0
   -4.4653   -1.2508    1.0570 C   0  0  0  0  0  0  0  0  0  0  0  0
   -5.5881   -1.7274    0.3728 C   0  0  0  0  0  0  0  0  0  0  0  0
   -6.8360   -1.1075    0.5244 C   0  0  0  0  0  0  0  0  0  0  0  0
   -6.9390   -0.0029    1.3697 C   0  0  0  0  0  0  0  0  0  0  0  0
   -5.8137    0.4787    2.0502 C   0  0  0  0  0  0  0  0  0  0  0  0
   -7.9151   -1.6501   -0.2041 N   0  0  0  0  0  0  0  0  0  0  0  0
   -9.2489   -1.2718   -0.1520 C   0  0  0  0  0  0  0  0  0  0  0  0
   -9.7237   -0.3856    0.5592 O   0  0  0  0  0  0  0  0  0  0  0  0
  -10.1567   -2.1655   -1.0356 C   0  0  1  0  0  0  0  0  0  0  0  0
  -10.2586   -3.6080   -0.5120 C   0  0  0  0  0  0  0  0  0  0  0  0
  -10.4754   -3.8158    0.9934 C   0  0  0  0  0  0  0  0  0  0  0  0
  -11.8006   -3.3093    1.5500 C   0  0  0  0  0  0  0  0  0  0  0  0
  -11.8278   -1.8709    1.6853 N   0  0  0  0  0  0  0  0  0  0  0  0
  -12.9461   -1.2481    2.1535 C   0  0  0  0  0  0  0  0  0  0  0  0
  -14.0299   -1.7835    2.3211 O   0  0  0  0  0  0  0  0  0  0  0  0
  -12.7259    0.0681    2.3934 N   0  0  0  0  0  0  0  0  0  0  0  0
  -11.4813   -1.5683   -1.2119 N   0  0  0  0  0  0  0  0  0  0  0  0
  -11.7678   -0.8210   -2.3371 C   0  0  0  0  0  0  0  0  0  0  0  0
  -10.9731   -0.7277   -3.2722 O   0  0  0  0  0  0  0  0  0  0  0  0
  -13.1456   -0.1114   -2.3497 C   0  0  1  0  0  0  0  0  0  0  0  0
  -13.8517   -0.3917   -3.7052 C   0  0  0  0  0  0  0  0  0  0  0  0
  -15.0416    0.5358   -3.9679 C   0  0  0  0  0  0  0  0  0  0  0  0
  -14.2981   -1.8536   -3.8427 C   0  0  0  0  0  0  0  0  0  0  0  0
  -13.9878   -0.4539   -1.1978 N   0  0  0  0  0  0  0  0  0  0  0  0
  -14.8974    0.4514   -0.6864 C   0  0  0  0  0  0  0  0  0  0  0  0
  -14.9036    1.6417   -0.9892 O   0  0  0  0  0  0  0  0  0  0  0  0
  -15.8792   -0.1431    0.3024 C   0  0  0  0  0  0  0  0  0  0  0  0
  -17.2520    0.5245    0.2090 C   0  0  0  0  0  0  0  0  0  0  0  0
  -18.2043   -0.0426    1.2637 C   0  0  0  0  0  0  0  0  0  0  0  0
  -19.6229    0.5339    1.1926 C   0  0  0  0  0  0  0  0  0  0  0  0
  -19.8261    1.8304    1.9880 C   0  0  0  0  0  0  0  0  0  0  0  0
  -19.1714    2.9818    1.4062 N   0  0  0  0  0  0  0  0  0  0  0  0
  -18.0910    3.6093    1.9345 C   0  0  0  0  0  0  0  0  0  0  0  0
  -17.4617    3.3417    2.9413 O   0  0  0  0  0  0  0  0  0  0  0  0
  -17.7738    4.7374    1.0499 C   0  0  0  0  0  0  0  0  0  0  0  0
  -18.6742    4.7470    0.0658 C   0  0  0  0  0  0  0  0  0  0  0  0
  -19.5953    3.6290    0.2910 C   0  0  0  0  0  0  0  0  0  0  0  0
  -20.5532    3.3844   -0.4192 O   0  0  0  0  0  0  0  0  0  0  0  0
    8.2526   -1.5231   -3.9453 H   0  0  0  0  0  0  0  0  0  0  0  0
    7.7638   -2.9341   -2.9981 H   0  0  0  0  0  0  0  0  0  0  0  0
    6.5456   -1.9606   -3.8553 H   0  0  0  0  0  0  0  0  0  0  0  0
    8.3550   -0.8825   -1.6684 H   0  0  0  0  0  0  0  0  0  0  0  0
    6.9855   -0.0467   -2.3788 H   0  0  0  0  0  0  0  0  0  0  0  0
    6.8844   -2.6068   -0.7328 H   0  0  0  0  0  0  0  0  0  0  0  0
    4.5135   -1.0347   -1.8172 H   0  0  0  0  0  0  0  0  0  0  0  0
    5.0498   -2.6518   -2.2868 H   0  0  0  0  0  0  0  0  0  0  0  0
    4.4178   -2.3878   -0.6685 H   0  0  0  0  0  0  0  0  0  0  0  0
    6.1543   -1.7387    1.1195 H   0  0  0  0  0  0  0  0  0  0  0  0
    7.5450    0.0563    2.0319 H   0  0  0  0  0  0  0  0  0  0  0  0
    8.9912   -1.9237    0.2025 H   0  0  0  0  0  0  0  0  0  0  0  0
    8.3718   -2.2954    1.8123 H   0  0  0  0  0  0  0  0  0  0  0  0
   10.8808   -2.2545   -0.5899 H   0  0  0  0  0  0  0  0  0  0  0  0
   11.1235   -3.4098    0.7447 H   0  0  0  0  0  0  0  0  0  0  0  0
   13.3194   -3.4571   -0.1977 H   0  0  0  0  0  0  0  0  0  0  0  0
   13.1640   -1.8130   -0.8299 H   0  0  0  0  0  0  0  0  0  0  0  0
   13.6618   -2.6718    2.0381 H   0  0  0  0  0  0  0  0  0  0  0  0
   14.5491   -1.4483    1.1322 H   0  0  0  0  0  0  0  0  0  0  0  0
   12.4922   -0.8676    2.8817 H   0  0  0  0  0  0  0  0  0  0  0  0
   11.8197    1.1704    1.5647 H   0  0  0  0  0  0  0  0  0  0  0  0
   13.7249    2.4468    1.7070 H   0  0  0  0  0  0  0  0  0  0  0  0
   14.1821    0.3056    3.8336 H   0  0  0  0  0  0  0  0  0  0  0  0
   12.8653    1.5006    3.8789 H   0  0  0  0  0  0  0  0  0  0  0  0
   14.5558    2.0222    3.9251 H   0  0  0  0  0  0  0  0  0  0  0  0
   14.5818    1.1871   -0.4783 H   0  0  0  0  0  0  0  0  0  0  0  0
   17.3146    2.1214   -0.0392 H   0  0  0  0  0  0  0  0  0  0  0  0
   17.4295    2.1391   -2.5612 H   0  0  0  0  0  0  0  0  0  0  0  0
   15.7455    1.5620   -2.5790 H   0  0  0  0  0  0  0  0  0  0  0  0
   16.1367    3.1018   -1.8391 H   0  0  0  0  0  0  0  0  0  0  0  0
   17.8943   -0.0874    0.3712 H   0  0  0  0  0  0  0  0  0  0  0  0
   17.2722   -2.2586    0.6770 H   0  0  0  0  0  0  0  0  0  0  0  0
   16.3369   -4.3865   -0.1397 H   0  0  0  0  0  0  0  0  0  0  0  0
   15.4130   -4.5486   -2.4389 H   0  0  0  0  0  0  0  0  0  0  0  0
   15.4593   -2.5652   -3.9299 H   0  0  0  0  0  0  0  0  0  0  0  0
   16.4360   -0.4486   -3.1549 H   0  0  0  0  0  0  0  0  0  0  0  0
   19.1131   -0.5754   -1.6180 H   0  0  0  0  0  0  0  0  0  0  0  0
   11.9013    1.0574   -1.9024 H   0  0  0  0  0  0  0  0  0  0  0  0
   11.3409    2.0229   -0.5220 H   0  0  0  0  0  0  0  0  0  0  0  0
   10.8986    0.2913   -0.6671 H   0  0  0  0  0  0  0  0  0  0  0  0
    8.7231    2.6562    0.0838 H   0  0  0  0  0  0  0  0  0  0  0  0
    7.5037    2.2188    1.3025 H   0  0  0  0  0  0  0  0  0  0  0  0
    9.2335    1.8682    1.5850 H   0  0  0  0  0  0  0  0  0  0  0  0
    5.0083    0.5337    2.6976 H   0  0  0  0  0  0  0  0  0  0  0  0
    4.5895   -1.1555    2.2994 H   0  0  0  0  0  0  0  0  0  0  0  0
    3.4900    0.1321    1.8473 H   0  0  0  0  0  0  0  0  0  0  0  0
    3.8427    2.2272    1.3903 H   0  0  0  0  0  0  0  0  0  0  0  0
    4.2426    3.6303   -1.3054 H   0  0  0  0  0  0  0  0  0  0  0  0
    3.2753    5.6065   -0.0997 H   0  0  0  0  0  0  0  0  0  0  0  0
    2.9220    4.5724    1.2951 H   0  0  0  0  0  0  0  0  0  0  0  0
    2.1147    4.2945   -0.2610 H   0  0  0  0  0  0  0  0  0  0  0  0
    5.6094    5.2692    0.0901 H   0  0  0  0  0  0  0  0  0  0  0  0
    5.6021    4.0777    1.4029 H   0  0  0  0  0  0  0  0  0  0  0  0
    6.3707    3.7062   -0.1535 H   0  0  0  0  0  0  0  0  0  0  0  0
    2.7806    1.4145   -1.2946 H   0  0  0  0  0  0  0  0  0  0  0  0
    0.3808    1.6920   -1.4112 H   0  0  0  0  0  0  0  0  0  0  0  0
   -0.5821   -0.8488   -0.9692 H   0  0  0  0  0  0  0  0  0  0  0  0
    2.3962   -1.0843   -0.3242 H   0  0  0  0  0  0  0  0  0  0  0  0
    1.1904   -2.3650   -0.4354 H   0  0  0  0  0  0  0  0  0  0  0  0
    1.1482   -1.2336    0.9158 H   0  0  0  0  0  0  0  0  0  0  0  0
    0.1880    0.0821   -3.1021 H   0  0  0  0  0  0  0  0  0  0  0  0
    1.8780   -0.0911   -2.5995 H   0  0  0  0  0  0  0  0  0  0  0  0
    0.8664   -1.5242   -2.8127 H   0  0  0  0  0  0  0  0  0  0  0  0
   -1.5919    2.8347   -1.2900 H   0  0  0  0  0  0  0  0  0  0  0  0
   -0.7605    3.5070    0.1367 H   0  0  0  0  0  0  0  0  0  0  0  0
   -2.4445    2.9582    0.2557 H   0  0  0  0  0  0  0  0  0  0  0  0
   -2.7505   -0.4113    3.0344 H   0  0  0  0  0  0  0  0  0  0  0  0
   -3.6333    1.0540    3.4303 H   0  0  0  0  0  0  0  0  0  0  0  0
   -3.5036   -1.7421    0.9141 H   0  0  0  0  0  0  0  0  0  0  0  0
   -5.4651   -2.5871   -0.2812 H   0  0  0  0  0  0  0  0  0  0  0  0
   -7.8750    0.5287    1.5067 H   0  0  0  0  0  0  0  0  0  0  0  0
   -5.9192    1.3575    2.6852 H   0  0  0  0  0  0  0  0  0  0  0  0
   -7.6775   -2.4015   -0.8377 H   0  0  0  0  0  0  0  0  0  0  0  0
   -9.6798   -2.2172   -2.0219 H   0  0  0  0  0  0  0  0  0  0  0  0
  -11.0442   -4.1410   -1.0621 H   0  0  0  0  0  0  0  0  0  0  0  0
   -9.3218   -4.1223   -0.7641 H   0  0  0  0  0  0  0  0  0  0  0  0
   -9.6383   -3.3862    1.5588 H   0  0  0  0  0  0  0  0  0  0  0  0
  -10.4368   -4.8986    1.1737 H   0  0  0  0  0  0  0  0  0  0  0  0
  -11.9612   -3.7299    2.5497 H   0  0  0  0  0  0  0  0  0  0  0  0
  -12.6411   -3.6231    0.9233 H   0  0  0  0  0  0  0  0  0  0  0  0
  -10.9696   -1.4021    1.9652 H   0  0  0  0  0  0  0  0  0  0  0  0
  -13.5509    0.6104    2.6148 H   0  0  0  0  0  0  0  0  0  0  0  0
  -12.0320    0.5425    1.8282 H   0  0  0  0  0  0  0  0  0  0  0  0
  -11.9617   -1.2867   -0.3605 H   0  0  0  0  0  0  0  0  0  0  0  0
  -12.9144    0.9592   -2.2853 H   0  0  0  0  0  0  0  0  0  0  0  0
  -13.1300   -0.1991   -4.5105 H   0  0  0  0  0  0  0  0  0  0  0  0
  -15.8734    0.3369   -3.2844 H   0  0  0  0  0  0  0  0  0  0  0  0
  -14.7531    1.5876   -3.8632 H   0  0  0  0  0  0  0  0  0  0  0  0
  -15.4187    0.3936   -4.9878 H   0  0  0  0  0  0  0  0  0  0  0  0
  -13.4644   -2.5425   -3.6747 H   0  0  0  0  0  0  0  0  0  0  0  0
  -14.6819   -2.0455   -4.8513 H   0  0  0  0  0  0  0  0  0  0  0  0
  -15.0933   -2.1016   -3.1326 H   0  0  0  0  0  0  0  0  0  0  0  0
  -14.1202   -1.4350   -0.9851 H   0  0  0  0  0  0  0  0  0  0  0  0
  -15.4717    0.0198    1.3036 H   0  0  0  0  0  0  0  0  0  0  0  0
  -15.9768   -1.2215    0.1381 H   0  0  0  0  0  0  0  0  0  0  0  0
  -17.1379    1.6025    0.3370 H   0  0  0  0  0  0  0  0  0  0  0  0
  -17.6666    0.3687   -0.7949 H   0  0  0  0  0  0  0  0  0  0  0  0
  -18.2733   -1.1275    1.1096 H   0  0  0  0  0  0  0  0  0  0  0  0
  -17.7872    0.1031    2.2680 H   0  0  0  0  0  0  0  0  0  0  0  0
  -20.3009   -0.2147    1.6267 H   0  0  0  0  0  0  0  0  0  0  0  0
  -19.9315    0.6651    0.1486 H   0  0  0  0  0  0  0  0  0  0  0  0
  -20.9002    2.0510    2.0173 H   0  0  0  0  0  0  0  0  0  0  0  0
  -19.4859    1.6979    3.0214 H   0  0  0  0  0  0  0  0  0  0  0  0
  -16.9465    5.4064    1.2103 H   0  0  0  0  0  0  0  0  0  0  0  0
  -18.7566    5.4265   -0.7637 H   0  0  0  0  0  0  0  0  0  0  0  0
  1  2  1  0
  2  3  1  0
  3  4  1  0
  3  5  1  0
  5  6  1  0
  6  7  1  0
  7  8  1  0
  8  9  2  0
  8 10  1  0
 10 11  1  0
 11 12  1  0
 12 13  1  0
 13 14  1  0
 14 15  1  0
 15 16  1  0
 16 17  1  0
 16 18  1  0
 18 19  2  0
 18 20  1  0
 20 21  1  0
 21 22  1  0
 21 23  1  0
 23 24  1  0
 24 25  2  0
 25 26  1  0
 26 27  2  0
 27 28  1  0
 28 29  2  0
 23 30  1  0
 15 31  1  0
 31 32  1  0
  6 33  1  0
 33 34  1  0
  5 35  1  0
 35 36  1  0
 35 37  1  0
 37 38  2  0
 37 39  1  0
 39 40  1  0
 40 41  1  0
 40 42  1  0
 39 43  1  0
 43 44  1  0
 44 45  2  0
 44 46  1  0
 46 47  1  0
 47 48  1  0
 47 49  1  0
 46 50  1  0
 50 51  1  0
 50 52  1  0
 52 53  2  0
 52 54  1  0
 54 55  1  0
 55 56  1  0
 56 57  1  0
 57 58  2  0
 58 59  1  0
 59 60  2  0
 60 61  1  0
 59 62  1  0
 62 63  1  0
 63 64  2  0
 63 65  1  0
 65 66  1  0
 66 67  1  0
 67 68  1  0
 68 69  1  0
 69 70  1  0
 70 71  2  0
 70 72  1  0
 65 73  1  0
 73 74  1  0
 74 75  2  0
 74 76  1  0
 76 77  1  0
 77 78  1  0
 77 79  1  0
 76 80  1  0
 80 81  1  0
 81 82  2  0
 81 83  1  0
 83 84  1  0
 84 85  1  0
 85 86  1  0
 86 87  1  0
 87 88  1  0
 88 89  1  0
 89 90  2  0
 89 91  1  0
 91 92  2  0
 92 93  1  0
 93 94  2  0
 14 10  1  0
 29 24  1  0
 61 56  2  0
 93 88  1  0
  1 95  1  0
  1 96  1  0
  1 97  1  0
  2 98  1  0
  2 99  1  0
  3100  1  1
  4101  1  0
  4102  1  0
  4103  1  0
  5104  1  1
  6105  1  1
  7106  1  0
  7107  1  0
 11108  1  0
 11109  1  0
 12110  1  0
 12111  1  0
 13112  1  0
 13113  1  0
 14114  1  1
 15115  1  6
 16116  1  1
 17117  1  0
 17118  1  0
 17119  1  0
 20120  1  0
 21121  1  1
 22122  1  0
 22123  1  0
 22124  1  0
 23125  1  1
 25126  1  0
 26127  1  0
 27128  1  0
 28129  1  0
 29130  1  0
 30131  1  0
 32132  1  0
 32133  1  0
 32134  1  0
 34135  1  0
 34136  1  0
 34137  1  0
 36138  1  0
 36139  1  0
 36140  1  0
 39141  1  1
 40142  1  0
 41143  1  0
 41144  1  0
 41145  1  0
 42146  1  0
 42147  1  0
 42148  1  0
 43149  1  0
 46150  1  6
 47151  1  0
 48152  1  0
 48153  1  0
 48154  1  0
 49155  1  0
 49156  1  0
 49157  1  0
 51158  1  0
 51159  1  0
 51160  1  0
 55161  1  0
 55162  1  0
 57163  1  0
 58164  1  0
 60165  1  0
 61166  1  0
 62167  1  0
 65168  1  6
 66169  1  0
 66170  1  0
 67171  1  0
 67172  1  0
 68173  1  0
 68174  1  0
 69175  1  0
 72176  1  0
 72177  1  0
 73178  1  0
 76179  1  1
 77180  1  0
 78181  1  0
 78182  1  0
 78183  1  0
 79184  1  0
 79185  1  0
 79186  1  0
 80187  1  0
 83188  1  0
 83189  1  0
 84190  1  0
 84191  1  0
 85192  1  0
 85193  1  0
 86194  1  0
 86195  1  0
 87196  1  0
 87197  1  0
 91198  1  0
 92199  1  0
M  END
$$$$

     RDKit          3D

199202  0  0  0  0  0  0  0  0999 V2000
   -5.9134    3.7069    3.1550 C   0  0  0  0  0  0  0  0  0  0  0  0
   -5.4587    2.8211    1.9975 C   0  0  0  0  0  0  0  0  0  0  0  0
   -6.6288    2.0849    1.2870 C   0  0  2  0  0  0  0  0  0  0  0  0
   -7.2770    1.1329    2.3108 C   0  0  0  0  0  0  0  0  0  0  0  0
   -6.1725    1.2996    0.0000 C   0  0  1  0  0  0  0  0  0  0  0  0
   -7.2529    0.7538   -1.0494 C   0  0  1  0  0  0  0  0  0  0  0  0
   -8.7502    0.8294   -0.7279 C   0  0  0  0  0  0  0  0  0  0  0  0
   -9.2909    2.2122   -0.4166 C   0  0  0  0  0  0  0  0  0  0  0  0
   -8.8130    3.2254   -0.9262 O   0  0  0  0  0  0  0  0  0  0  0  0
  -10.3356    2.2826    0.4885 N   0  0  0  0  0  0  0  0  0  0  0  0
  -10.5787    3.5377    1.1819 C   0  0  0  0  0  0  0  0  0  0  0  0
  -11.0195    3.0943    2.5682 C   0  0  0  0  0  0  0  0  0  0  0  0
  -11.8609    1.8635    2.2632 C   0  0  0  0  0  0  0  0  0  0  0  0
  -11.0863    1.1750    1.1202 C   0  0  1  0  0  0  0  0  0  0  0  0
  -11.9594    0.3597    0.1136 C   0  0  1  0  0  0  0  0  0  0  0  0
  -11.6571   -1.1543    0.1846 C   0  0  1  0  0  0  0  0  0  0  0  0
  -11.9404   -1.8005    1.5467 C   0  0  0  0  0  0  0  0  0  0  0  0
  -12.4023   -1.8743   -0.9300 C   0  0  0  0  0  0  0  0  0  0  0  0
  -11.8273   -2.2470   -1.9516 O   0  0  0  0  0  0  0  0  0  0  0  0
  -13.7469   -2.0395   -0.7071 N   0  0  0  0  0  0  0  0  0  0  0  0
  -14.6669   -2.6373   -1.6731 C   0  0  2  0  0  0  0  0  0  0  0  0
  -15.4398   -1.5362   -2.4014 C   0  0  0  0  0  0  0  0  0  0  0  0
  -15.5715   -3.7107   -1.0087 C   0  0  1  0  0  0  0  0  0  0  0  0
  -16.3521   -3.2215    0.2001 C   0  0  0  0  0  0  0  0  0  0  0  0
  -17.5982   -2.5930    0.0651 C   0  0  0  0  0  0  0  0  0  0  0  0
  -18.2896   -2.1304    1.1866 C   0  0  0  0  0  0  0  0  0  0  0  0
  -17.7428   -2.2902    2.4602 C   0  0  0  0  0  0  0  0  0  0  0  0
  -16.5030   -2.9116    2.6111 C   0  0  0  0  0  0  0  0  0  0  0  0
  -15.8143   -3.3774    1.4901 C   0  0  0  0  0  0  0  0  0  0  0  0
  -16.4717   -4.2798   -1.9681 O   0  0  0  0  0  0  0  0  0  0  0  0
  -13.3662    0.5454    0.3678 O   0  0  0  0  0  0  0  0  0  0  0  0
  -13.9412    1.5540   -0.4675 C   0  0  0  0  0  0  0  0  0  0  0  0
   -6.9833    1.2595   -2.3686 O   0  0  0  0  0  0  0  0  0  0  0  0
   -7.4234    0.4386   -3.4429 C   0  0  0  0  0  0  0  0  0  0  0  0
   -4.9888    1.9030   -0.6645 N   0  0  0  0  0  0  0  0  0  0  0  0
   -5.2278    3.1713   -1.3597 C   0  0  0  0  0  0  0  0  0  0  0  0
   -3.7275    1.3465   -0.8668 C   0  0  0  0  0  0  0  0  0  0  0  0
   -2.9079    1.9765   -1.5575 O   0  0  0  0  0  0  0  0  0  0  0  0
   -3.2116    0.0571   -0.1142 C   0  0  1  0  0  0  0  0  0  0  0  0
   -4.0115   -1.2719    0.0094 C   0  0  0  0  0  0  0  0  0  0  0  0
   -4.6633   -1.7854   -1.2752 C   0  0  0  0  0  0  0  0  0  0  0  0
   -3.1929   -2.4001    0.6664 C   0  0  0  0  0  0  0  0  0  0  0  0
   -1.8144   -0.1754   -0.5459 N   0  0  0  0  0  0  0  0  0  0  0  0
   -1.4989   -0.6566   -1.8021 C   0  0  0  0  0  0  0  0  0  0  0  0
   -2.3329   -0.9972   -2.6341 O   0  0  0  0  0  0  0  0  0  0  0  0
    0.0078   -0.7783   -2.1184 C   0  0  1  0  0  0  0  0  0  0  0  0
    0.7058    0.5770   -2.3859 C   0  0  0  0  0  0  0  0  0  0  0  0
    0.0517    1.2960   -3.5778 C   0  0  0  0  0  0  0  0  0  0  0  0
    2.1952    0.3839   -2.7000 C   0  0  0  0  0  0  0  0  0  0  0  0
    0.6087   -1.6979   -1.1210 N   0  0  0  0  0  0  0  0  0  0  0  0
    0.4990   -3.1166   -1.4393 C   0  0  0  0  0  0  0  0  0  0  0  0
    1.0658   -1.3607    0.1415 C   0  0  0  0  0  0  0  0  0  0  0  0
    1.4029   -2.1830    0.9855 O   0  0  0  0  0  0  0  0  0  0  0  0
    1.1494   -0.0204    0.3455 O   0  0  0  0  0  0  0  0  0  0  0  0
    1.9278    0.3870    1.4835 C   0  0  0  0  0  0  0  0  0  0  0  0
    3.3715    0.5763    1.0712 C   0  0  0  0  0  0  0  0  0  0  0  0
    3.8603    1.8360    0.7135 C   0  0  0  0  0  0  0  0  0  0  0  0
    5.1817    1.9836    0.2626 C   0  0  0  0  0  0  0  0  0  0  0  0
    6.0314    0.8775    0.1524 C   0  0  0  0  0  0  0  0  0  0  0  0
    5.5456   -0.3785    0.5180 C   0  0  0  0  0  0  0  0  0  0  0  0
    4.2303   -0.5251    0.9722 C   0  0  0  0  0  0  0  0  0  0  0  0
    7.3266    1.0934   -0.3737 N   0  0  0  0  0  0  0  0  0  0  0  0
    8.3729    0.1924   -0.4028 C   0  0  0  0  0  0  0  0  0  0  0  0
    8.4016   -0.8815    0.2145 O   0  0  0  0  0  0  0  0  0  0  0  0
    9.6321    0.6206   -1.2171 C   0  0  1  0  0  0  0  0  0  0  0  0
    9.5793    1.9653   -1.9574 C   0  0  0  0  0  0  0  0  0  0  0  0
   10.7102    2.2042   -2.9678 C   0  0  0  0  0  0  0  0  0  0  0  0
   12.0441    2.6149   -2.3473 C   0  0  0  0  0  0  0  0  0  0  0  0
   12.9657    1.5120   -2.2162 N   0  0  0  0  0  0  0  0  0  0  0  0
   13.8908    1.2078   -3.1663 C   0  0  0  0  0  0  0  0  0  0  0  0
   14.0176    1.7751   -4.2426 O   0  0  0  0  0  0  0  0  0  0  0  0
   14.6890    0.1779   -2.7937 N   0  0  0  0  0  0  0  0  0  0  0  0
   10.7685    0.4093   -0.3234 N   0  0  0  0  0  0  0  0  0  0  0  0
   10.9760    1.2122    0.7871 C   0  0  0  0  0  0  0  0  0  0  0  0
   10.3996    2.2897    0.9349 O   0  0  0  0  0  0  0  0  0  0  0  0
   12.0408    0.6639    1.7887 C   0  0  1  0  0  0  0  0  0  0  0  0
   11.5427    0.6964    3.2602 C   0  0  0  0  0  0  0  0  0  0  0  0
   11.3697    2.1207    3.7996 C   0  0  0  0  0  0  0  0  0  0  0  0
   12.5127   -0.0400    4.1992 C   0  0  0  0  0  0  0  0  0  0  0  0
   12.4481   -0.7056    1.4222 N   0  0  0  0  0  0  0  0  0  0  0  0
   13.5144   -0.9507    0.5845 C   0  0  0  0  0  0  0  0  0  0  0  0
   14.1226   -0.0589    0.0094 O   0  0  0  0  0  0  0  0  0  0  0  0
   13.7952   -2.4268    0.3699 C   0  0  0  0  0  0  0  0  0  0  0  0
   15.1800   -2.7173   -0.2138 C   0  0  0  0  0  0  0  0  0  0  0  0
   16.2510   -3.0077    0.8446 C   0  0  0  0  0  0  0  0  0  0  0  0
   16.5781   -1.8543    1.8020 C   0  0  0  0  0  0  0  0  0  0  0  0
   17.2751   -0.6505    1.1557 C   0  0  0  0  0  0  0  0  0  0  0  0
   18.6063   -0.9668    0.6801 N   0  0  0  0  0  0  0  0  0  0  0  0
   19.7081   -1.0566    1.4683 C   0  0  0  0  0  0  0  0  0  0  0  0
   19.8087   -0.8736    2.6683 O   0  0  0  0  0  0  0  0  0  0  0  0
   20.8300   -1.4309    0.6011 C   0  0  0  0  0  0  0  0  0  0  0  0
   20.3589   -1.5617   -0.6414 C   0  0  0  0  0  0  0  0  0  0  0  0
   18.9203   -1.2656   -0.6085 C   0  0  0  0  0  0  0  0  0  0  0  0
   18.1958   -1.3063   -1.5843 O   0  0  0  0  0  0  0  0  0  0  0  0
   -6.2700    3.1157    4.0053 H   0  0  0  0  0  0  0  0  0  0  0  0
   -5.0785    4.3209    3.5120 H   0  0  0  0  0  0  0  0  0  0  0  0
   -6.7160    4.3836    2.8395 H   0  0  0  0  0  0  0  0  0  0  0  0
   -4.7215    2.0938    2.3597 H   0  0  0  0  0  0  0  0  0  0  0  0
   -4.9411    3.4800    1.2944 H   0  0  0  0  0  0  0  0  0  0  0  0
   -7.3466    2.8558    1.0033 H   0  0  0  0  0  0  0  0  0  0  0  0
   -8.0656    0.5220    1.8845 H   0  0  0  0  0  0  0  0  0  0  0  0
   -7.7237    1.6789    3.1441 H   0  0  0  0  0  0  0  0  0  0  0  0
   -6.5294    0.4441    2.7175 H   0  0  0  0  0  0  0  0  0  0  0  0
   -5.7967    0.3928    0.4426 H   0  0  0  0  0  0  0  0  0  0  0  0
   -7.0409   -0.3234   -1.1011 H   0  0  0  0  0  0  0  0  0  0  0  0
   -9.3469    0.4567   -1.5694 H   0  0  0  0  0  0  0  0  0  0  0  0
   -8.9288    0.1482    0.0971 H   0  0  0  0  0  0  0  0  0  0  0  0
   -9.6874    4.1740    1.2115 H   0  0  0  0  0  0  0  0  0  0  0  0
  -11.3818    4.0631    0.6570 H   0  0  0  0  0  0  0  0  0  0  0  0
  -10.1498    2.8082    3.1707 H   0  0  0  0  0  0  0  0  0  0  0  0
  -11.5709    3.8708    3.1046 H   0  0  0  0  0  0  0  0  0  0  0  0
  -11.9854    1.2055    3.1263 H   0  0  0  0  0  0  0  0  0  0  0  0
  -12.8510    2.2116    1.9591 H   0  0  0  0  0  0  0  0  0  0  0  0
  -10.3262    0.5309    1.5716 H   0  0  0  0  0  0  0  0  0  0  0  0
  -11.7428    0.6825   -0.9184 H   0  0  0  0  0  0  0  0  0  0  0  0
  -10.5919   -1.3187   -0.0247 H   0  0  0  0  0  0  0  0  0  0  0  0
  -11.8839   -2.8933    1.4794 H   0  0  0  0  0  0  0  0  0  0  0  0
  -11.2089   -1.4821    2.2957 H   0  0  0  0  0  0  0  0  0  0  0  0
  -12.9370   -1.5451    1.9270 H   0  0  0  0  0  0  0  0  0  0  0  0
  -14.1625   -1.4356   -0.0014 H   0  0  0  0  0  0  0  0  0  0  0  0
  -14.0771   -3.1531   -2.4450 H   0  0  0  0  0  0  0  0  0  0  0  0
  -15.9845   -0.8917   -1.7044 H   0  0  0  0  0  0  0  0  0  0  0  0
  -14.7504   -0.8952   -2.9634 H   0  0  0  0  0  0  0  0  0  0  0  0
  -16.1575   -1.9557   -3.1160 H   0  0  0  0  0  0  0  0  0  0  0  0
  -14.9225   -4.5361   -0.6827 H   0  0  0  0  0  0  0  0  0  0  0  0
  -18.0401   -2.4588   -0.9221 H   0  0  0  0  0  0  0  0  0  0  0  0
  -19.2534   -1.6420    1.0666 H   0  0  0  0  0  0  0  0  0  0  0  0
  -18.2796   -1.9253    3.3325 H   0  0  0  0  0  0  0  0  0  0  0  0
  -16.0744   -3.0308    3.6054 H   0  0  0  0  0  0  0  0  0  0  0  0
  -14.8470   -3.8604    1.6289 H   0  0  0  0  0  0  0  0  0  0  0  0
  -16.9624   -4.9759   -1.5020 H   0  0  0  0  0  0  0  0  0  0  0  0
  -13.9446    1.2244   -1.5106 H   0  0  0  0  0  0  0  0  0  0  0  0
  -13.4031    2.5025   -0.3726 H   0  0  0  0  0  0  0  0  0  0  0  0
  -14.9791    1.6994   -0.1481 H   0  0  0  0  0  0  0  0  0  0  0  0
   -8.4858    0.6042   -3.6360 H   0  0  0  0  0  0  0  0  0  0  0  0
   -6.8660    0.7268   -4.3397 H   0  0  0  0  0  0  0  0  0  0  0  0
   -7.2450   -0.6215   -3.2468 H   0  0  0  0  0  0  0  0  0  0  0  0
   -4.4468    3.8910   -1.0851 H   0  0  0  0  0  0  0  0  0  0  0  0
   -5.1815    3.0132   -2.4430 H   0  0  0  0  0  0  0  0  0  0  0  0
   -6.1979    3.5961   -1.0872 H   0  0  0  0  0  0  0  0  0  0  0  0
   -3.0893    0.4121    0.9227 H   0  0  0  0  0  0  0  0  0  0  0  0
   -4.8186   -1.1104    0.7281 H   0  0  0  0  0  0  0  0  0  0  0  0
   -4.0176   -2.4844   -1.8146 H   0  0  0  0  0  0  0  0  0  0  0  0
   -4.9417   -0.9716   -1.9482 H   0  0  0  0  0  0  0  0  0  0  0  0
   -5.5798   -2.3417   -1.0341 H   0  0  0  0  0  0  0  0  0  0  0  0
   -2.7667   -2.0612    1.6177 H   0  0  0  0  0  0  0  0  0  0  0  0
   -2.3799   -2.7496    0.0247 H   0  0  0  0  0  0  0  0  0  0  0  0
   -3.8371   -3.2617    0.8820 H   0  0  0  0  0  0  0  0  0  0  0  0
   -1.1193    0.4451   -0.1550 H   0  0  0  0  0  0  0  0  0  0  0  0
    0.0588   -1.3273   -3.0720 H   0  0  0  0  0  0  0  0  0  0  0  0
    0.6056    1.2510   -1.5292 H   0  0  0  0  0  0  0  0  0  0  0  0
    0.5770    2.2306   -3.8060 H   0  0  0  0  0  0  0  0  0  0  0  0
   -0.9875    1.5568   -3.3666 H   0  0  0  0  0  0  0  0  0  0  0  0
    0.0708    0.6708   -4.4746 H   0  0  0  0  0  0  0  0  0  0  0  0
    2.7344   -0.0249   -1.8461 H   0  0  0  0  0  0  0  0  0  0  0  0
    2.3321   -0.3002   -3.5414 H   0  0  0  0  0  0  0  0  0  0  0  0
    2.6654    1.3378   -2.9576 H   0  0  0  0  0  0  0  0  0  0  0  0
   -0.5393   -3.3532   -1.6889 H   0  0  0  0  0  0  0  0  0  0  0  0
    1.1362   -3.3203   -2.3029 H   0  0  0  0  0  0  0  0  0  0  0  0
    0.8167   -3.7586   -0.6172 H   0  0  0  0  0  0  0  0  0  0  0  0
    1.8439   -0.3100    2.3254 H   0  0  0  0  0  0  0  0  0  0  0  0
    1.5126    1.3364    1.8373 H   0  0  0  0  0  0  0  0  0  0  0  0
    3.2198    2.7123    0.7692 H   0  0  0  0  0  0  0  0  0  0  0  0
    5.5257    2.9772   -0.0102 H   0  0  0  0  0  0  0  0  0  0  0  0
    6.1527   -1.2723    0.4342 H   0  0  0  0  0  0  0  0  0  0  0  0
    3.8819   -1.5234    1.2367 H   0  0  0  0  0  0  0  0  0  0  0  0
    7.5549    2.0606   -0.5780 H   0  0  0  0  0  0  0  0  0  0  0  0
    9.7286   -0.1580   -1.9862 H   0  0  0  0  0  0  0  0  0  0  0  0
    8.6432    1.9826   -2.5354 H   0  0  0  0  0  0  0  0  0  0  0  0
    9.5137    2.8143   -1.2702 H   0  0  0  0  0  0  0  0  0  0  0  0
   10.8270    1.3397   -3.6293 H   0  0  0  0  0  0  0  0  0  0  0  0
   10.3821    3.0398   -3.6023 H   0  0  0  0  0  0  0  0  0  0  0  0
   12.5119    3.3744   -2.9868 H   0  0  0  0  0  0  0  0  0  0  0  0
   11.9073    3.0598   -1.3578 H   0  0  0  0  0  0  0  0  0  0  0  0
   12.9722    0.9600   -1.3716 H   0  0  0  0  0  0  0  0  0  0  0  0
   15.5119    0.0604   -3.3760 H   0  0  0  0  0  0  0  0  0  0  0  0
   14.8650    0.1046   -1.7980 H   0  0  0  0  0  0  0  0  0  0  0  0
   10.9620   -0.5627   -0.1379 H   0  0  0  0  0  0  0  0  0  0  0  0
   12.9200    1.3146    1.6877 H   0  0  0  0  0  0  0  0  0  0  0  0
   10.5710    0.1883    3.3193 H   0  0  0  0  0  0  0  0  0  0  0  0
   11.0849    2.1042    4.8578 H   0  0  0  0  0  0  0  0  0  0  0  0
   12.2993    2.6897    3.7121 H   0  0  0  0  0  0  0  0  0  0  0  0
   10.5870    2.6716    3.2749 H   0  0  0  0  0  0  0  0  0  0  0  0
   12.5622   -1.1087    3.9729 H   0  0  0  0  0  0  0  0  0  0  0  0
   13.5268    0.3670    4.1180 H   0  0  0  0  0  0  0  0  0  0  0  0
   12.1934    0.0467    5.2438 H   0  0  0  0  0  0  0  0  0  0  0  0
   11.8983   -1.4849    1.7744 H   0  0  0  0  0  0  0  0  0  0  0  0
   13.6456   -2.9755    1.3074 H   0  0  0  0  0  0  0  0  0  0  0  0
   13.0348   -2.7791   -0.3397 H   0  0  0  0  0  0  0  0  0  0  0  0
   15.0974   -3.6128   -0.8424 H   0  0  0  0  0  0  0  0  0  0  0  0
   15.5158   -1.9167   -0.8799 H   0  0  0  0  0  0  0  0  0  0  0  0
   15.9230   -3.8662    1.4446 H   0  0  0  0  0  0  0  0  0  0  0  0
   17.1669   -3.3357    0.3394 H   0  0  0  0  0  0  0  0  0  0  0  0
   15.6619   -1.5140    2.2957 H   0  0  0  0  0  0  0  0  0  0  0  0
   17.2229   -2.2528    2.5991 H   0  0  0  0  0  0  0  0  0  0  0  0
   17.3746    0.1375    1.9118 H   0  0  0  0  0  0  0  0  0  0  0  0
   16.6868   -0.2519    0.3233 H   0  0  0  0  0  0  0  0  0  0  0  0
   21.8332   -1.5729    0.9563 H   0  0  0  0  0  0  0  0  0  0  0  0
   20.8872   -1.8337   -1.5387 H   0  0  0  0  0  0  0  0  0  0  0  0
  1  2  1  0
  2  3  1  0
  3  4  1  0
  3  5  1  0
  5  6  1  0
  6  7  1  0
  7  8  1  0
  8  9  2  0
  8 10  1  0
 10 11  1  0
 11 12  1  0
 12 13  1  0
 13 14  1  0
 14 15  1  0
 15 16  1  0
 16 17  1  0
 16 18  1  0
 18 19  2  0
 18 20  1  0
 20 21  1  0
 21 22  1  0
 21 23  1  0
 23 24  1  0
 24 25  2  0
 25 26  1  0
 26 27  2  0
 27 28  1  0
 28 29  2  0
 23 30  1  0
 15 31  1  0
 31 32  1  0
  6 33  1  0
 33 34  1  0
  5 35  1  0
 35 36  1  0
 35 37  1  0
 37 38  2  0
 37 39  1  0
 39 40  1  0
 40 41  1  0
 40 42  1  0
 39 43  1  0
 43 44  1  0
 44 45  2  0
 44 46  1  0
 46 47  1  0
 47 48  1  0
 47 49  1  0
 46 50  1  0
 50 51  1  0
 50 52  1  0
 52 53  2  0
 52 54  1  0
 54 55  1  0
 55 56  1  0
 56 57  1  0
 57 58  2  0
 58 59  1  0
 59 60  2  0
 60 61  1  0
 59 62  1  0
 62 63  1  0
 63 64  2  0
 63 65  1  0
 65 66  1  0
 66 67  1  0
 67 68  1  0
 68 69  1  0
 69 70  1  0
 70 71  2  0
 70 72  1  0
 65 73  1  0
 73 74  1  0
 74 75  2  0
 74 76  1  0
 76 77  1  0
 77 78  1  0
 77 79  1  0
 76 80  1  0
 80 81  1  0
 81 82  2  0
 81 83  1  0
 83 84  1  0
 84 85  1  0
 85 86  1  0
 86 87  1  0
 87 88  1  0
 88 89  1  0
 89 90  2  0
 89 91  1  0
 91 92  2  0
 92 93  1  0
 93 94  2  0
 14 10  1  0
 29 24  1  0
 61 56  2  0
 93 88  1  0
  1 95  1  0
  1 96  1  0
  1 97  1  0
  2 98  1  0
  2 99  1  0
  3100  1  6
  4101  1  0
  4102  1  0
  4103  1  0
  5104  1  1
  6105  1  6
  7106  1  0
  7107  1  0
 11108  1  0
 11109  1  0
 12110  1  0
 12111  1  0
 13112  1  0
 13113  1  0
 14114  1  1
 15115  1  6
 16116  1  6
 17117  1  0
 17118  1  0
 17119  1  0
 20120  1  0
 21121  1  6
 22122  1  0
 22123  1  0
 22124  1  0
 23125  1  1
 25126  1  0
 26127  1  0
 27128  1  0
 28129  1  0
 29130  1  0
 30131  1  0
 32132  1  0
 32133  1  0
 32134  1  0
 34135  1  0
 34136  1  0
 34137  1  0
 36138  1  0
 36139  1  0
 36140  1  0
 39141  1  1
 40142  1  0
 41143  1  0
 41144  1  0
 41145  1  0
 42146  1  0
 42147  1  0
 42148  1  0
 43149  1  0
 46150  1  6
 47151  1  0
 48152  1  0
 48153  1  0
 48154  1  0
 49155  1  0
 49156  1  0
 49157  1  0
 51158  1  0
 51159  1  0
 51160  1  0
 55161  1  0
 55162  1  0
 57163  1  0
 58164  1  0
 60165  1  0
 61166  1  0
 62167  1  0
 65168  1  6
 66169  1  0
 66170  1  0
 67171  1  0
 67172  1  0
 68173  1  0
 68174  1  0
 69175  1  0
 72176  1  0
 72177  1  0
 73178  1  0
 76179  1  1
 77180  1  0
 78181  1  0
 78182  1  0
 78183  1  0
 79184  1  0
 79185  1  0
 79186  1  0
 80187  1  0
 83188  1  0
 83189  1  0
 84190  1  0
 84191  1  0
 85192  1  0
 85193  1  0
 86194  1  0
 86195  1  0
 87196  1  0
 87197  1  0
 91198  1  0
 92199  1  0
M  END
$$$$

     RDKit          3D

199202  0  0  0  0  0  0  0  0999 V2000
   -7.6257    1.9863    0.8209 C   0  0  0  0  0  0  0  0  0  0  0  0
   -6.8790    1.0164    1.7228 C   0  0  0  0  0  0  0  0  0  0  0  0
   -5.6920    0.2297    1.1129 C   0  0  2  0  0  0  0  0  0  0  0  0
   -4.8857    1.0361    0.0926 C   0  0  0  0  0  0  0  0  0  0  0  0
   -6.0340   -1.2465    0.7088 C   0  0  1  0  0  0  0  0  0  0  0  0
   -7.1146   -1.5176   -0.4111 C   0  0  1  0  0  0  0  0  0  0  0  0
   -8.4624   -1.9061    0.2285 C   0  0  0  0  0  0  0  0  0  0  0  0
   -9.3291   -2.7061   -0.7272 C   0  0  0  0  0  0  0  0  0  0  0  0
   -8.9085   -3.7744   -1.1839 O   0  0  0  0  0  0  0  0  0  0  0  0
  -10.5846   -2.2259   -1.0500 N   0  0  0  0  0  0  0  0  0  0  0  0
  -11.4331   -2.9316   -1.9887 C   0  0  0  0  0  0  0  0  0  0  0  0
  -12.2010   -1.8205   -2.6746 C   0  0  0  0  0  0  0  0  0  0  0  0
  -12.3338   -0.7275   -1.6146 C   0  0  0  0  0  0  0  0  0  0  0  0
  -11.2714   -1.0264   -0.5378 C   0  0  1  0  0  0  0  0  0  0  0  0
  -11.8704   -1.2910    0.8803 C   0  0  1  0  0  0  0  0  0  0  0  0
  -12.0971   -0.0549    1.7718 C   0  0  1  0  0  0  0  0  0  0  0  0
  -10.8093    0.3490    2.4947 C   0  0  0  0  0  0  0  0  0  0  0  0
  -12.5927    1.1770    1.0342 C   0  0  0  0  0  0  0  0  0  0  0  0
  -11.9087    1.7848    0.2143 O   0  0  0  0  0  0  0  0  0  0  0  0
  -13.8409    1.6204    1.4010 N   0  0  0  0  0  0  0  0  0  0  0  0
  -14.3146    2.9602    1.0241 C   0  0  2  0  0  0  0  0  0  0  0  0
  -15.4782    3.3590    1.9343 C   0  0  0  0  0  0  0  0  0  0  0  0
  -14.7005    3.1500   -0.4845 C   0  0  1  0  0  0  0  0  0  0  0  0
  -14.0611    4.3608   -1.1566 C   0  0  0  0  0  0  0  0  0  0  0  0
  -13.6354    4.3054   -2.4978 C   0  0  0  0  0  0  0  0  0  0  0  0
  -13.0441    5.4106   -3.1200 C   0  0  0  0  0  0  0  0  0  0  0  0
  -12.8701    6.5959   -2.4157 C   0  0  0  0  0  0  0  0  0  0  0  0
  -13.3133    6.6868   -1.0979 C   0  0  0  0  0  0  0  0  0  0  0  0
  -13.9221    5.5891   -0.4832 C   0  0  0  0  0  0  0  0  0  0  0  0
  -14.3701    1.9676   -1.2255 O   0  0  0  0  0  0  0  0  0  0  0  0
  -13.1244   -1.9986    0.7674 O   0  0  0  0  0  0  0  0  0  0  0  0
  -13.2596   -3.0628    1.7021 C   0  0  0  0  0  0  0  0  0  0  0  0
   -7.3013   -0.3434   -1.1973 O   0  0  0  0  0  0  0  0  0  0  0  0
   -7.5319   -0.5884   -2.5760 C   0  0  0  0  0  0  0  0  0  0  0  0
   -4.7871   -2.0685    0.5482 N   0  0  0  0  0  0  0  0  0  0  0  0
   -4.2473   -2.6340    1.7861 C   0  0  0  0  0  0  0  0  0  0  0  0
   -4.1366   -2.1364   -0.6865 C   0  0  0  0  0  0  0  0  0  0  0  0
   -4.5154   -1.4582   -1.6500 O   0  0  0  0  0  0  0  0  0  0  0  0
   -2.8732   -3.0202   -0.8328 C   0  0  1  0  0  0  0  0  0  0  0  0
   -2.7773   -3.7729   -2.1886 C   0  0  0  0  0  0  0  0  0  0  0  0
   -3.9991   -4.6724   -2.4043 C   0  0  0  0  0  0  0  0  0  0  0  0
   -2.5657   -2.8948   -3.4288 C   0  0  0  0  0  0  0  0  0  0  0  0
   -1.7155   -2.1502   -0.6156 N   0  0  0  0  0  0  0  0  0  0  0  0
   -0.6776   -2.4698    0.2356 C   0  0  0  0  0  0  0  0  0  0  0  0
   -0.6733   -3.4947    0.9096 O   0  0  0  0  0  0  0  0  0  0  0  0
    0.4602   -1.4153    0.2472 C   0  0  1  0  0  0  0  0  0  0  0  0
    1.4273   -1.4956    1.4581 C   0  0  0  0  0  0  0  0  0  0  0  0
    0.6916   -1.3762    2.7930 C   0  0  0  0  0  0  0  0  0  0  0  0
    2.3592   -2.7085    1.4721 C   0  0  0  0  0  0  0  0  0  0  0  0
    1.1750   -1.3688   -1.0518 N   0  0  0  0  0  0  0  0  0  0  0  0
    1.3422   -2.6029   -1.8135 C   0  0  0  0  0  0  0  0  0  0  0  0
    1.8031   -0.2251   -1.5292 C   0  0  0  0  0  0  0  0  0  0  0  0
    2.3764   -0.1686   -2.6132 O   0  0  0  0  0  0  0  0  0  0  0  0
    1.7044    0.8271   -0.6677 O   0  0  0  0  0  0  0  0  0  0  0  0
    2.5103    1.9720   -1.0026 C   0  0  0  0  0  0  0  0  0  0  0  0
    3.9253    1.7864   -0.5053 C   0  0  0  0  0  0  0  0  0  0  0  0
    5.0267    1.9363   -1.3638 C   0  0  0  0  0  0  0  0  0  0  0  0
    6.3317    1.7076   -0.9023 C   0  0  0  0  0  0  0  0  0  0  0  0
    6.5303    1.2717    0.4088 C   0  0  0  0  0  0  0  0  0  0  0  0
    5.4409    1.1411    1.2728 C   0  0  0  0  0  0  0  0  0  0  0  0
    4.1536    1.4287    0.8306 C   0  0  0  0  0  0  0  0  0  0  0  0
    7.8127    0.9208    0.8696 N   0  0  0  0  0  0  0  0  0  0  0  0
    8.0391   -0.4201    1.1667 C   0  0  0  0  0  0  0  0  0  0  0  0
    7.3772   -1.3317    0.6758 O   0  0  0  0  0  0  0  0  0  0  0  0
    9.3042   -0.6691    2.0147 C   0  0  1  0  0  0  0  0  0  0  0  0
    9.1891   -1.9002    2.9394 C   0  0  0  0  0  0  0  0  0  0  0  0
    8.7116   -3.2494    2.3677 C   0  0  0  0  0  0  0  0  0  0  0  0
    9.4936   -3.8656    1.2109 C   0  0  0  0  0  0  0  0  0  0  0  0
    9.3759   -3.1215   -0.0314 N   0  0  0  0  0  0  0  0  0  0  0  0
    9.9324   -3.6613   -1.1596 C   0  0  0  0  0  0  0  0  0  0  0  0
   10.6372   -4.6557   -1.2058 O   0  0  0  0  0  0  0  0  0  0  0  0
    9.6541   -2.9235   -2.2672 N   0  0  0  0  0  0  0  0  0  0  0  0
   10.5123   -0.7481    1.1982 N   0  0  0  0  0  0  0  0  0  0  0  0
   11.6652   -0.0731    1.5462 C   0  0  0  0  0  0  0  0  0  0  0  0
   11.6318    0.9091    2.2871 O   0  0  0  0  0  0  0  0  0  0  0  0
   12.9687   -0.4898    0.8230 C   0  0  1  0  0  0  0  0  0  0  0  0
   13.1651   -2.0279    0.7586 C   0  0  0  0  0  0  0  0  0  0  0  0
   13.2428   -2.6069    2.1775 C   0  0  0  0  0  0  0  0  0  0  0  0
   14.4223   -2.4607   -0.0005 C   0  0  0  0  0  0  0  0  0  0  0  0
   12.9662    0.2029   -0.4712 N   0  0  0  0  0  0  0  0  0  0  0  0
   14.1565    0.6925   -0.9922 C   0  0  0  0  0  0  0  0  0  0  0  0
   15.2560    0.3300   -0.5929 O   0  0  0  0  0  0  0  0  0  0  0  0
   13.9590    1.7343   -2.0735 C   0  0  0  0  0  0  0  0  0  0  0  0
   15.2516    2.1469   -2.7761 C   0  0  0  0  0  0  0  0  0  0  0  0
   16.3147    2.8676   -1.9304 C   0  0  0  0  0  0  0  0  0  0  0  0
   15.8439    4.1695   -1.2841 C   0  0  0  0  0  0  0  0  0  0  0  0
   15.4013    3.9972    0.1712 C   0  0  0  0  0  0  0  0  0  0  0  0
   14.7059    5.1832    0.6382 N   0  0  0  0  0  0  0  0  0  0  0  0
   15.3118    6.3049    1.1043 C   0  0  0  0  0  0  0  0  0  0  0  0
   16.4956    6.5195    1.2909 O   0  0  0  0  0  0  0  0  0  0  0  0
   14.2589    7.3012    1.3327 C   0  0  0  0  0  0  0  0  0  0  0  0
   13.0980    6.7438    0.9925 C   0  0  0  0  0  0  0  0  0  0  0  0
   13.3715    5.3905    0.4947 C   0  0  0  0  0  0  0  0  0  0  0  0
   12.5259    4.6438    0.0362 O   0  0  0  0  0  0  0  0  0  0  0  0
   -8.3389    2.5673    1.4143 H   0  0  0  0  0  0  0  0  0  0  0  0
   -8.2045    1.4757    0.0526 H   0  0  0  0  0  0  0  0  0  0  0  0
   -6.9572    2.7031    0.3399 H   0  0  0  0  0  0  0  0  0  0  0  0
   -6.4741    1.6138    2.5508 H   0  0  0  0  0  0  0  0  0  0  0  0
   -7.5908    0.3274    2.1880 H   0  0  0  0  0  0  0  0  0  0  0  0
   -5.0016    0.1184    1.9630 H   0  0  0  0  0  0  0  0  0  0  0  0
   -4.6436    2.0220    0.5032 H   0  0  0  0  0  0  0  0  0  0  0  0
   -5.4198    1.1846   -0.8479 H   0  0  0  0  0  0  0  0  0  0  0  0
   -3.9333    0.5508   -0.1265 H   0  0  0  0  0  0  0  0  0  0  0  0
   -6.4677   -1.6775    1.6210 H   0  0  0  0  0  0  0  0  0  0  0  0
   -6.7765   -2.3540   -1.0384 H   0  0  0  0  0  0  0  0  0  0  0  0
   -8.9678   -1.0149    0.6031 H   0  0  0  0  0  0  0  0  0  0  0  0
   -8.3145   -2.5776    1.0865 H   0  0  0  0  0  0  0  0  0  0  0  0
  -10.8609   -3.5422   -2.6941 H   0  0  0  0  0  0  0  0  0  0  0  0
  -12.0985   -3.5862   -1.4171 H   0  0  0  0  0  0  0  0  0  0  0  0
  -13.1705   -2.1586   -3.0510 H   0  0  0  0  0  0  0  0  0  0  0  0
  -11.6248   -1.4364   -3.5234 H   0  0  0  0  0  0  0  0  0  0  0  0
  -13.3559   -0.7030   -1.2197 H   0  0  0  0  0  0  0  0  0  0  0  0
  -12.1557    0.2485   -2.0746 H   0  0  0  0  0  0  0  0  0  0  0  0
  -10.5329   -0.2207   -0.5001 H   0  0  0  0  0  0  0  0  0  0  0  0
  -11.1721   -1.9554    1.4089 H   0  0  0  0  0  0  0  0  0  0  0  0
  -12.8282   -0.3077    2.5526 H   0  0  0  0  0  0  0  0  0  0  0  0
  -11.0004    1.1542    3.2100 H   0  0  0  0  0  0  0  0  0  0  0  0
  -10.3827   -0.4908    3.0502 H   0  0  0  0  0  0  0  0  0  0  0  0
  -10.0565    0.7157    1.7936 H   0  0  0  0  0  0  0  0  0  0  0  0
  -14.4853    0.9803    1.8462 H   0  0  0  0  0  0  0  0  0  0  0  0
  -13.4743    3.6233    1.2632 H   0  0  0  0  0  0  0  0  0  0  0  0
  -15.8499    4.3607    1.6965 H   0  0  0  0  0  0  0  0  0  0  0  0
  -16.3118    2.6522    1.8291 H   0  0  0  0  0  0  0  0  0  0  0  0
  -15.1672    3.3525    2.9854 H   0  0  0  0  0  0  0  0  0  0  0  0
  -15.7861    3.2634   -0.5820 H   0  0  0  0  0  0  0  0  0  0  0  0
  -13.7724    3.3955   -3.0754 H   0  0  0  0  0  0  0  0  0  0  0  0
  -12.7141    5.3357   -4.1531 H   0  0  0  0  0  0  0  0  0  0  0  0
  -12.4052    7.4549   -2.8935 H   0  0  0  0  0  0  0  0  0  0  0  0
  -13.1856    7.6149   -0.5499 H   0  0  0  0  0  0  0  0  0  0  0  0
  -14.2648    5.7110    0.5406 H   0  0  0  0  0  0  0  0  0  0  0  0
  -13.4006    1.8932   -1.1177 H   0  0  0  0  0  0  0  0  0  0  0  0
  -14.2576   -3.4961    1.5908 H   0  0  0  0  0  0  0  0  0  0  0  0
  -13.1459   -2.6969    2.7275 H   0  0  0  0  0  0  0  0  0  0  0  0
  -12.5180   -3.8418    1.4950 H   0  0  0  0  0  0  0  0  0  0  0  0
   -6.7703   -1.2520   -2.9977 H   0  0  0  0  0  0  0  0  0  0  0  0
   -8.5287   -1.0100   -2.7342 H   0  0  0  0  0  0  0  0  0  0  0  0
   -7.4789    0.3710   -3.1065 H   0  0  0  0  0  0  0  0  0  0  0  0
   -4.9894   -3.3263    2.2046 H   0  0  0  0  0  0  0  0  0  0  0  0
   -3.3030   -3.1562    1.6697 H   0  0  0  0  0  0  0  0  0  0  0  0
   -4.0818   -1.8222    2.5042 H   0  0  0  0  0  0  0  0  0  0  0  0
   -2.8867   -3.8128   -0.0833 H   0  0  0  0  0  0  0  0  0  0  0  0
   -1.8985   -4.4275   -2.1228 H   0  0  0  0  0  0  0  0  0  0  0  0
   -3.8439   -5.3197   -3.2777 H   0  0  0  0  0  0  0  0  0  0  0  0
   -4.1706   -5.3225   -1.5375 H   0  0  0  0  0  0  0  0  0  0  0  0
   -4.9098   -4.0864   -2.5784 H   0  0  0  0  0  0  0  0  0  0  0  0
   -3.4279   -2.2579   -3.6381 H   0  0  0  0  0  0  0  0  0  0  0  0
   -2.4126   -3.5282   -4.3100 H   0  0  0  0  0  0  0  0  0  0  0  0
   -1.6833   -2.2567   -3.3302 H   0  0  0  0  0  0  0  0  0  0  0  0
   -1.6154   -1.3558   -1.2353 H   0  0  0  0  0  0  0  0  0  0  0  0
   -0.0587   -0.4496    0.3397 H   0  0  0  0  0  0  0  0  0  0  0  0
    2.0888   -0.6226    1.3978 H   0  0  0  0  0  0  0  0  0  0  0  0
    1.4046   -1.1951    3.6079 H   0  0  0  0  0  0  0  0  0  0  0  0
    0.1308   -2.2849    3.0407 H   0  0  0  0  0  0  0  0  0  0  0  0
   -0.0082   -0.5336    2.7887 H   0  0  0  0  0  0  0  0  0  0  0  0
    2.9553   -2.7629    0.5573 H   0  0  0  0  0  0  0  0  0  0  0  0
    3.0678   -2.6313    2.3033 H   0  0  0  0  0  0  0  0  0  0  0  0
    1.8126   -3.6456    1.5947 H   0  0  0  0  0  0  0  0  0  0  0  0
    1.5641   -3.4357   -1.1433 H   0  0  0  0  0  0  0  0  0  0  0  0
    2.1543   -2.5203   -2.5392 H   0  0  0  0  0  0  0  0  0  0  0  0
    0.4158   -2.8177   -2.3522 H   0  0  0  0  0  0  0  0  0  0  0  0
    2.0742    2.8416   -0.4930 H   0  0  0  0  0  0  0  0  0  0  0  0
    2.4720    2.1873   -2.0773 H   0  0  0  0  0  0  0  0  0  0  0  0
    4.8723    2.1874   -2.4136 H   0  0  0  0  0  0  0  0  0  0  0  0
    7.1631    1.7912   -1.5973 H   0  0  0  0  0  0  0  0  0  0  0  0
    5.5956    0.8321    2.3046 H   0  0  0  0  0  0  0  0  0  0  0  0
    3.3204    1.3464    1.5244 H   0  0  0  0  0  0  0  0  0  0  0  0
    8.6057    1.3613    0.4163 H   0  0  0  0  0  0  0  0  0  0  0  0
    9.4084    0.1960    2.6869 H   0  0  0  0  0  0  0  0  0  0  0  0
    8.4809   -1.6450    3.7394 H   0  0  0  0  0  0  0  0  0  0  0  0
   10.1543   -2.0626    3.4332 H   0  0  0  0  0  0  0  0  0  0  0  0
    7.6520   -3.1835    2.0934 H   0  0  0  0  0  0  0  0  0  0  0  0
    8.7441   -3.9706    3.1966 H   0  0  0  0  0  0  0  0  0  0  0  0
   10.5569   -3.9789    1.4592 H   0  0  0  0  0  0  0  0  0  0  0  0
    9.1018   -4.8715    1.0153 H   0  0  0  0  0  0  0  0  0  0  0  0
    8.4453   -2.7514   -0.2123 H   0  0  0  0  0  0  0  0  0  0  0  0
   10.1629   -3.2577   -3.0742 H   0  0  0  0  0  0  0  0  0  0  0  0
    9.7416   -1.9227   -2.1350 H   0  0  0  0  0  0  0  0  0  0  0  0
   10.5385   -1.4858    0.4947 H   0  0  0  0  0  0  0  0  0  0  0  0
   13.7930   -0.0681    1.4165 H   0  0  0  0  0  0  0  0  0  0  0  0
   12.3133   -2.4915    0.2424 H   0  0  0  0  0  0  0  0  0  0  0  0
   14.0786   -2.1665    2.7373 H   0  0  0  0  0  0  0  0  0  0  0  0
   12.3292   -2.4253    2.7434 H   0  0  0  0  0  0  0  0  0  0  0  0
   13.3918   -3.6909    2.1521 H   0  0  0  0  0  0  0  0  0  0  0  0
   14.5284   -3.5517    0.0203 H   0  0  0  0  0  0  0  0  0  0  0  0
   15.3257   -2.0272    0.4482 H   0  0  0  0  0  0  0  0  0  0  0  0
   14.3641   -2.1682   -1.0538 H   0  0  0  0  0  0  0  0  0  0  0  0
   12.1504    0.7730   -0.6685 H   0  0  0  0  0  0  0  0  0  0  0  0
   13.2785    1.3148   -2.8273 H   0  0  0  0  0  0  0  0  0  0  0  0
   13.4609    2.6070   -1.6422 H   0  0  0  0  0  0  0  0  0  0  0  0
   14.9864    2.7978   -3.6202 H   0  0  0  0  0  0  0  0  0  0  0  0
   15.7158    1.2569   -3.2178 H   0  0  0  0  0  0  0  0  0  0  0  0
   17.1427    3.1096   -2.6117 H   0  0  0  0  0  0  0  0  0  0  0  0
   16.7430    2.2000   -1.1744 H   0  0  0  0  0  0  0  0  0  0  0  0
   15.0627    4.6447   -1.8930 H   0  0  0  0  0  0  0  0  0  0  0  0
   16.6850    4.8753   -1.2822 H   0  0  0  0  0  0  0  0  0  0  0  0
   14.7332    3.1420    0.2939 H   0  0  0  0  0  0  0  0  0  0  0  0
   16.2762    3.8371    0.8095 H   0  0  0  0  0  0  0  0  0  0  0  0
   14.4375    8.2889    1.7082 H   0  0  0  0  0  0  0  0  0  0  0  0
   12.1144    7.1771    1.0183 H   0  0  0  0  0  0  0  0  0  0  0  0
  1  2  1  0
  2  3  1  0
  3  4  1  0
  3  5  1  0
  5  6  1  0
  6  7  1  0
  7  8  1  0
  8  9  2  0
  8 10  1  0
 10 11  1  0
 11 12  1  0
 12 13  1  0
 13 14  1  0
 14 15  1  0
 15 16  1  0
 16 17  1  0
 16 18  1  0
 18 19  2  0
 18 20  1  0
 20 21  1  0
 21 22  1  0
 21 23  1  0
 23 24  1  0
 24 25  2  0
 25 26  1  0
 26 27  2  0
 27 28  1  0
 28 29  2  0
 23 30  1  0
 15 31  1  0
 31 32  1  0
  6 33  1  0
 33 34  1  0
  5 35  1  0
 35 36  1  0
 35 37  1  0
 37 38  2  0
 37 39  1  0
 39 40  1  0
 40 41  1  0
 40 42  1  0
 39 43  1  0
 43 44  1  0
 44 45  2  0
 44 46  1  0
 46 47  1  0
 47 48  1  0
 47 49  1  0
 46 50  1  0
 50 51  1  0
 50 52  1  0
 52 53  2  0
 52 54  1  0
 54 55  1  0
 55 56  1  0
 56 57  1  0
 57 58  2  0
 58 59  1  0
 59 60  2  0
 60 61  1  0
 59 62  1  0
 62 63  1  0
 63 64  2  0
 63 65  1  0
 65 66  1  0
 66 67  1  0
 67 68  1  0
 68 69  1  0
 69 70  1  0
 70 71  2  0
 70 72  1  0
 65 73  1  0
 73 74  1  0
 74 75  2  0
 74 76  1  0
 76 77  1  0
 77 78  1  0
 77 79  1  0
 76 80  1  0
 80 81  1  0
 81 82  2  0
 81 83  1  0
 83 84  1  0
 84 85  1  0
 85 86  1  0
 86 87  1  0
 87 88  1  0
 88 89  1  0
 89 90  2  0
 89 91  1  0
 91 92  2  0
 92 93  1  0
 93 94  2  0
 14 10  1  0
 29 24  1  0
 61 56  2  0
 93 88  1  0
  1 95  1  0
  1 96  1  0
  1 97  1  0
  2 98  1  0
  2 99  1  0
  3100  1  1
  4101  1  0
  4102  1  0
  4103  1  0
  5104  1  1
  6105  1  6
  7106  1  0
  7107  1  0
 11108  1  0
 11109  1  0
 12110  1  0
 12111  1  0
 13112  1  0
 13113  1  0
 14114  1  1
 15115  1  1
 16116  1  1
 17117  1  0
 17118  1  0
 17119  1  0
 20120  1  0
 21121  1  1
 22122  1  0
 22123  1  0
 22124  1  0
 23125  1  1
 25126  1  0
 26127  1  0
 27128  1  0
 28129  1  0
 29130  1  0
 30131  1  0
 32132  1  0
 32133  1  0
 32134  1  0
 34135  1  0
 34136  1  0
 34137  1  0
 36138  1  0
 36139  1  0
 36140  1  0
 39141  1  1
 40142  1  0
 41143  1  0
 41144  1  0
 41145  1  0
 42146  1  0
 42147  1  0
 42148  1  0
 43149  1  0
 46150  1  1
 47151  1  0
 48152  1  0
 48153  1  0
 48154  1  0
 49155  1  0
 49156  1  0
 49157  1  0
 51158  1  0
 51159  1  0
 51160  1  0
 55161  1  0
 55162  1  0
 57163  1  0
 58164  1  0
 60165  1  0
 61166  1  0
 62167  1  0
 65168  1  1
 66169  1  0
 66170  1  0
 67171  1  0
 67172  1  0
 68173  1  0
 68174  1  0
 69175  1  0
 72176  1  0
 72177  1  0
 73178  1  0
 76179  1  1
 77180  1  0
 78181  1  0
 78182  1  0
 78183  1  0
 79184  1  0
 79185  1  0
 79186  1  0
 80187  1  0
 83188  1  0
 83189  1  0
 84190  1  0
 84191  1  0
 85192  1  0
 85193  1  0
 86194  1  0
 86195  1  0
 87196  1  0
 87197  1  0
 91198  1  0
 92199  1  0
M  END
$$$$

     RDKit          3D

199202  0  0  0  0  0  0  0  0999 V2000
   -4.6925    2.5604   -2.0782 C   0  0  0  0  0  0  0  0  0  0  0  0
   -5.0769    1.1008   -2.2717 C   0  0  0  0  0  0  0  0  0  0  0  0
   -6.3472    0.6273   -1.5182 C   0  0  2  0  0  0  0  0  0  0  0  0
   -7.4776    1.6555   -1.6670 C   0  0  0  0  0  0  0  0  0  0  0  0
   -6.1180    0.2580   -0.0111 C   0  0  1  0  0  0  0  0  0  0  0  0
   -7.3931   -0.3887    0.7030 C   0  0  1  0  0  0  0  0  0  0  0  0
   -8.0556   -1.5451   -0.0844 C   0  0  0  0  0  0  0  0  0  0  0  0
   -9.1755   -2.3092    0.6140 C   0  0  0  0  0  0  0  0  0  0  0  0
   -9.2112   -2.4321    1.8420 O   0  0  0  0  0  0  0  0  0  0  0  0
  -10.0515   -3.0438   -0.1714 N   0  0  0  0  0  0  0  0  0  0  0  0
  -10.7434   -4.1467    0.4789 C   0  0  0  0  0  0  0  0  0  0  0  0
  -11.5280   -4.8414   -0.6138 C   0  0  0  0  0  0  0  0  0  0  0  0
  -10.7479   -4.5028   -1.8792 C   0  0  0  0  0  0  0  0  0  0  0  0
  -10.2083   -3.0852   -1.6311 C   0  0  1  0  0  0  0  0  0  0  0  0
  -11.0530   -1.9513   -2.3336 C   0  0  1  0  0  0  0  0  0  0  0  0
  -12.5793   -1.7772   -2.0629 C   0  0  1  0  0  0  0  0  0  0  0  0
  -13.4220   -2.7827   -2.8582 C   0  0  0  0  0  0  0  0  0  0  0  0
  -12.9473   -1.6400   -0.5820 C   0  0  0  0  0  0  0  0  0  0  0  0
  -12.1771   -1.1814    0.2566 O   0  0  0  0  0  0  0  0  0  0  0  0
  -14.2538   -1.9373   -0.2638 N   0  0  0  0  0  0  0  0  0  0  0  0
  -14.7696   -1.8917    1.1081 C   0  0  2  0  0  0  0  0  0  0  0  0
  -14.7177   -3.3043    1.6943 C   0  0  0  0  0  0  0  0  0  0  0  0
  -16.2196   -1.3384    1.1487 C   0  0  1  0  0  0  0  0  0  0  0  0
  -16.3010    0.1570    0.9078 C   0  0  0  0  0  0  0  0  0  0  0  0
  -16.3301    1.0382    2.0005 C   0  0  0  0  0  0  0  0  0  0  0  0
  -16.4099    2.4171    1.8010 C   0  0  0  0  0  0  0  0  0  0  0  0
  -16.4543    2.9343    0.5087 C   0  0  0  0  0  0  0  0  0  0  0  0
  -16.4136    2.0725   -0.5869 C   0  0  0  0  0  0  0  0  0  0  0  0
  -16.3307    0.6947   -0.3899 C   0  0  0  0  0  0  0  0  0  0  0  0
  -17.0437   -2.0443    0.2030 O   0  0  0  0  0  0  0  0  0  0  0  0
  -10.3654   -0.6880   -2.1890 O   0  0  0  0  0  0  0  0  0  0  0  0
  -10.4927    0.1729   -3.3151 C   0  0  0  0  0  0  0  0  0  0  0  0
   -6.9672   -0.7921    2.0144 O   0  0  0  0  0  0  0  0  0  0  0  0
   -7.7298   -0.1937    3.0606 C   0  0  0  0  0  0  0  0  0  0  0  0
   -4.8518   -0.5254    0.1912 N   0  0  0  0  0  0  0  0  0  0  0  0
   -4.8033   -1.8902   -0.3122 C   0  0  0  0  0  0  0  0  0  0  0  0
   -3.7537   -0.1299    0.9595 C   0  0  0  0  0  0  0  0  0  0  0  0
   -2.8104   -0.9123    1.1822 O   0  0  0  0  0  0  0  0  0  0  0  0
   -3.6632    1.3014    1.5485 C   0  0  1  0  0  0  0  0  0  0  0  0
   -4.4009    1.4434    2.8951 C   0  0  0  0  0  0  0  0  0  0  0  0
   -3.9069    0.4787    3.9755 C   0  0  0  0  0  0  0  0  0  0  0  0
   -4.3448    2.8879    3.4064 C   0  0  0  0  0  0  0  0  0  0  0  0
   -2.2309    1.6135    1.6977 N   0  0  0  0  0  0  0  0  0  0  0  0
   -1.5789    2.4726    0.8346 C   0  0  0  0  0  0  0  0  0  0  0  0
   -2.2078    3.1680    0.0384 O   0  0  0  0  0  0  0  0  0  0  0  0
   -0.0203    2.5112    0.9828 C   0  0  1  0  0  0  0  0  0  0  0  0
    0.7176    1.1880    0.5967 C   0  0  0  0  0  0  0  0  0  0  0  0
    0.9215    0.2558    1.7973 C   0  0  0  0  0  0  0  0  0  0  0  0
    0.0876    0.4309   -0.5738 C   0  0  0  0  0  0  0  0  0  0  0  0
    0.6480    3.6673    0.3241 N   0  0  0  0  0  0  0  0  0  0  0  0
    0.1585    4.1587   -0.9528 C   0  0  0  0  0  0  0  0  0  0  0  0
    1.8190    4.2203    0.8144 C   0  0  0  0  0  0  0  0  0  0  0  0
    2.3876    5.1786    0.2980 O   0  0  0  0  0  0  0  0  0  0  0  0
    2.3086    3.5470    1.8910 O   0  0  0  0  0  0  0  0  0  0  0  0
    3.6288    3.9154    2.3136 C   0  0  0  0  0  0  0  0  0  0  0  0
    4.6481    3.0390    1.6277 C   0  0  0  0  0  0  0  0  0  0  0  0
    5.2045    1.9236    2.2681 C   0  0  0  0  0  0  0  0  0  0  0  0
    6.1251    1.1034    1.6006 C   0  0  0  0  0  0  0  0  0  0  0  0
    6.4754    1.3662    0.2700 C   0  0  0  0  0  0  0  0  0  0  0  0
    5.9282    2.4803   -0.3648 C   0  0  0  0  0  0  0  0  0  0  0  0
    5.0313    3.3104    0.3098 C   0  0  0  0  0  0  0  0  0  0  0  0
    7.3976    0.5080   -0.3628 N   0  0  0  0  0  0  0  0  0  0  0  0
    7.6194    0.4174   -1.7305 C   0  0  0  0  0  0  0  0  0  0  0  0
    6.8829    0.8751   -2.5984 O   0  0  0  0  0  0  0  0  0  0  0  0
    8.8263   -0.4851   -2.0844 C   0  0  1  0  0  0  0  0  0  0  0  0
    9.3273   -0.2404   -3.5169 C   0  0  0  0  0  0  0  0  0  0  0  0
    9.7792    1.1917   -3.8582 C   0  0  0  0  0  0  0  0  0  0  0  0
   11.1638    1.5940   -3.3388 C   0  0  0  0  0  0  0  0  0  0  0  0
   11.2062    2.0462   -1.9533 N   0  0  0  0  0  0  0  0  0  0  0  0
   10.6584    3.2618   -1.6335 C   0  0  0  0  0  0  0  0  0  0  0  0
    9.9850    3.9668   -2.3657 O   0  0  0  0  0  0  0  0  0  0  0  0
   10.9488    3.6309   -0.3600 N   0  0  0  0  0  0  0  0  0  0  0  0
    9.9004   -0.3653   -1.1004 N   0  0  0  0  0  0  0  0  0  0  0  0
   10.8425   -1.3647   -0.9698 C   0  0  0  0  0  0  0  0  0  0  0  0
   10.7180   -2.4780   -1.4761 O   0  0  0  0  0  0  0  0  0  0  0  0
   12.0774   -0.9870   -0.1232 C   0  0  1  0  0  0  0  0  0  0  0  0
   11.8937   -1.1874    1.3956 C   0  0  0  0  0  0  0  0  0  0  0  0
   11.4636   -2.6079    1.7691 C   0  0  0  0  0  0  0  0  0  0  0  0
   10.9189   -0.1676    1.9917 C   0  0  0  0  0  0  0  0  0  0  0  0
   13.1978   -1.7681   -0.6373 N   0  0  0  0  0  0  0  0  0  0  0  0
   14.4356   -1.2199   -0.8544 C   0  0  0  0  0  0  0  0  0  0  0  0
   14.7232   -0.0687   -0.5365 O   0  0  0  0  0  0  0  0  0  0  0  0
   15.4288   -2.1622   -1.5025 C   0  0  0  0  0  0  0  0  0  0  0  0
   15.8364   -3.3248   -0.5988 C   0  0  0  0  0  0  0  0  0  0  0  0
   16.4928   -2.9176    0.7254 C   0  0  0  0  0  0  0  0  0  0  0  0
   18.0256   -2.8701    0.7048 C   0  0  0  0  0  0  0  0  0  0  0  0
   18.6566   -1.7703   -0.1509 C   0  0  0  0  0  0  0  0  0  0  0  0
   18.2492   -0.4229    0.1967 N   0  0  0  0  0  0  0  0  0  0  0  0
   18.4068    0.1473    1.4199 C   0  0  0  0  0  0  0  0  0  0  0  0
   18.8282   -0.3422    2.4525 O   0  0  0  0  0  0  0  0  0  0  0  0
   18.0263    1.5572    1.2952 C   0  0  0  0  0  0  0  0  0  0  0  0
   17.7736    1.7960    0.0094 C   0  0  0  0  0  0  0  0  0  0  0  0
   17.9873    0.5431   -0.7204 C   0  0  0  0  0  0  0  0  0  0  0  0
   17.9672    0.4612   -1.9369 O   0  0  0  0  0  0  0  0  0  0  0  0
   -3.6760    2.7335   -2.4469 H   0  0  0  0  0  0  0  0  0  0  0  0
   -5.3587    3.2180   -2.6446 H   0  0  0  0  0  0  0  0  0  0  0  0
   -4.7338    2.8632   -1.0311 H   0  0  0  0  0  0  0  0  0  0  0  0
   -4.2200    0.4694   -2.0218 H   0  0  0  0  0  0  0  0  0  0  0  0
   -5.2405    0.9491   -3.3465 H   0  0  0  0  0  0  0  0  0  0  0  0
   -6.6610   -0.2831   -2.0432 H   0  0  0  0  0  0  0  0  0  0  0  0
   -7.5997    1.9537   -2.7140 H   0  0  0  0  0  0  0  0  0  0  0  0
   -8.4331    1.2489   -1.3274 H   0  0  0  0  0  0  0  0  0  0  0  0
   -7.2838    2.5577   -1.0761 H   0  0  0  0  0  0  0  0  0  0  0  0
   -5.9714    1.2062    0.5125 H   0  0  0  0  0  0  0  0  0  0  0  0
   -8.1475    0.4037    0.7965 H   0  0  0  0  0  0  0  0  0  0  0  0
   -8.4212   -1.1523   -1.0287 H   0  0  0  0  0  0  0  0  0  0  0  0
   -7.3239   -2.3192   -0.3217 H   0  0  0  0  0  0  0  0  0  0  0  0
  -11.3742   -3.7802    1.2947 H   0  0  0  0  0  0  0  0  0  0  0  0
   -9.9877   -4.8204    0.9019 H   0  0  0  0  0  0  0  0  0  0  0  0
  -12.5448   -4.4435   -0.6438 H   0  0  0  0  0  0  0  0  0  0  0  0
  -11.6054   -5.9200   -0.4443 H   0  0  0  0  0  0  0  0  0  0  0  0
   -9.9015   -5.1994   -1.9607 H   0  0  0  0  0  0  0  0  0  0  0  0
  -11.3346   -4.6092   -2.7938 H   0  0  0  0  0  0  0  0  0  0  0  0
   -9.1987   -3.0213   -2.0587 H   0  0  0  0  0  0  0  0  0  0  0  0
  -10.9656   -2.2080   -3.4001 H   0  0  0  0  0  0  0  0  0  0  0  0
  -12.8727   -0.7992   -2.4629 H   0  0  0  0  0  0  0  0  0  0  0  0
  -13.5163   -3.7520   -2.3678 H   0  0  0  0  0  0  0  0  0  0  0  0
  -13.0128   -2.9436   -3.8610 H   0  0  0  0  0  0  0  0  0  0  0  0
  -14.4397   -2.4016   -3.0041 H   0  0  0  0  0  0  0  0  0  0  0  0
  -14.9094   -2.2780   -0.9556 H   0  0  0  0  0  0  0  0  0  0  0  0
  -14.1179   -1.2500    1.7142 H   0  0  0  0  0  0  0  0  0  0  0  0
  -15.3312   -4.0054    1.1160 H   0  0  0  0  0  0  0  0  0  0  0  0
  -15.0741   -3.3115    2.7294 H   0  0  0  0  0  0  0  0  0  0  0  0
  -13.6948   -3.6930    1.6912 H   0  0  0  0  0  0  0  0  0  0  0  0
  -16.6540   -1.5476    2.1360 H   0  0  0  0  0  0  0  0  0  0  0  0
  -16.2853    0.6576    3.0182 H   0  0  0  0  0  0  0  0  0  0  0  0
  -16.4309    3.0897    2.6555 H   0  0  0  0  0  0  0  0  0  0  0  0
  -16.5167    4.0072    0.3547 H   0  0  0  0  0  0  0  0  0  0  0  0
  -16.4389    2.4765   -1.5963 H   0  0  0  0  0  0  0  0  0  0  0  0
  -16.2888    0.0379   -1.2565 H   0  0  0  0  0  0  0  0  0  0  0  0
  -17.8406   -1.4970    0.0798 H   0  0  0  0  0  0  0  0  0  0  0  0
  -11.5337    0.4374   -3.5096 H   0  0  0  0  0  0  0  0  0  0  0  0
   -9.9512    1.0978   -3.1071 H   0  0  0  0  0  0  0  0  0  0  0  0
  -10.0539   -0.2928   -4.2003 H   0  0  0  0  0  0  0  0  0  0  0  0
   -8.7977   -0.4035    2.9669 H   0  0  0  0  0  0  0  0  0  0  0  0
   -7.3739   -0.5915    4.0142 H   0  0  0  0  0  0  0  0  0  0  0  0
   -7.5880    0.8896    3.0599 H   0  0  0  0  0  0  0  0  0  0  0  0
   -5.2445   -2.5589    0.4324 H   0  0  0  0  0  0  0  0  0  0  0  0
   -5.3336   -1.9679   -1.2634 H   0  0  0  0  0  0  0  0  0  0  0  0
   -3.7712   -2.2118   -0.4936 H   0  0  0  0  0  0  0  0  0  0  0  0
   -4.0865    1.9984    0.8256 H   0  0  0  0  0  0  0  0  0  0  0  0
   -5.4540    1.2184    2.7190 H   0  0  0  0  0  0  0  0  0  0  0  0
   -4.0475   -0.5627    3.6693 H   0  0  0  0  0  0  0  0  0  0  0  0
   -2.8462    0.6290    4.1995 H   0  0  0  0  0  0  0  0  0  0  0  0
   -4.4664    0.6197    4.9057 H   0  0  0  0  0  0  0  0  0  0  0  0
   -4.9739    3.0056    4.2945 H   0  0  0  0  0  0  0  0  0  0  0  0
   -3.3257    3.1818    3.6777 H   0  0  0  0  0  0  0  0  0  0  0  0
   -4.7095    3.5851    2.6444 H   0  0  0  0  0  0  0  0  0  0  0  0
   -1.6937    0.8596    2.1034 H   0  0  0  0  0  0  0  0  0  0  0  0
    0.1309    2.6763    2.0596 H   0  0  0  0  0  0  0  0  0  0  0  0
    1.7341    1.4490    0.2708 H   0  0  0  0  0  0  0  0  0  0  0  0
    1.3940    0.7900    2.6289 H   0  0  0  0  0  0  0  0  0  0  0  0
    1.5877   -0.5709    1.5258 H   0  0  0  0  0  0  0  0  0  0  0  0
   -0.0098   -0.1838    2.1559 H   0  0  0  0  0  0  0  0  0  0  0  0
    0.6910   -0.4507   -0.8267 H   0  0  0  0  0  0  0  0  0  0  0  0
   -0.9193    0.0783   -0.3402 H   0  0  0  0  0  0  0  0  0  0  0  0
    0.0344    1.0591   -1.4681 H   0  0  0  0  0  0  0  0  0  0  0  0
   -0.2606    3.3403   -1.5428 H   0  0  0  0  0  0  0  0  0  0  0  0
    0.9722    4.6007   -1.5369 H   0  0  0  0  0  0  0  0  0  0  0  0
   -0.5944    4.9334   -0.7730 H   0  0  0  0  0  0  0  0  0  0  0  0
    3.6693    3.7642    3.4002 H   0  0  0  0  0  0  0  0  0  0  0  0
    3.8442    4.9789    2.1518 H   0  0  0  0  0  0  0  0  0  0  0  0
    4.9215    1.6805    3.2913 H   0  0  0  0  0  0  0  0  0  0  0  0
    6.5365    0.2446    2.1231 H   0  0  0  0  0  0  0  0  0  0  0  0
    6.1958    2.7424   -1.3855 H   0  0  0  0  0  0  0  0  0  0  0  0
    4.6343    4.1751   -0.2165 H   0  0  0  0  0  0  0  0  0  0  0  0
    7.8748   -0.1765    0.2126 H   0  0  0  0  0  0  0  0  0  0  0  0
    8.4484   -1.5144   -2.0309 H   0  0  0  0  0  0  0  0  0  0  0  0
    8.5068   -0.4921   -4.2041 H   0  0  0  0  0  0  0  0  0  0  0  0
   10.1400   -0.9391   -3.7567 H   0  0  0  0  0  0  0  0  0  0  0  0
    9.8330    1.2385   -4.9552 H   0  0  0  0  0  0  0  0  0  0  0  0
    9.0179    1.9196   -3.5653 H   0  0  0  0  0  0  0  0  0  0  0  0
   11.8639    0.7558   -3.4243 H   0  0  0  0  0  0  0  0  0  0  0  0
   11.5541    2.4130   -3.9562 H   0  0  0  0  0  0  0  0  0  0  0  0
   12.1443    1.9873   -1.5568 H   0  0  0  0  0  0  0  0  0  0  0  0
   10.9720    2.9089    0.3439 H   0  0  0  0  0  0  0  0  0  0  0  0
   10.4470    4.4665   -0.0802 H   0  0  0  0  0  0  0  0  0  0  0  0
   10.2260    0.5863   -0.9643 H   0  0  0  0  0  0  0  0  0  0  0  0
   12.3016    0.0690   -0.3139 H   0  0  0  0  0  0  0  0  0  0  0  0
   12.8678   -1.0103    1.8698 H   0  0  0  0  0  0  0  0  0  0  0  0
   11.4140   -2.7172    2.8586 H   0  0  0  0  0  0  0  0  0  0  0  0
   10.4742   -2.8501    1.3673 H   0  0  0  0  0  0  0  0  0  0  0  0
   12.1791   -3.3496    1.3970 H   0  0  0  0  0  0  0  0  0  0  0  0
    9.8902   -0.3468    1.6659 H   0  0  0  0  0  0  0  0  0  0  0  0
   11.1987    0.8538    1.7093 H   0  0  0  0  0  0  0  0  0  0  0  0
   10.9340   -0.2219    3.0855 H   0  0  0  0  0  0  0  0  0  0  0  0
   12.9661   -2.6707   -1.0478 H   0  0  0  0  0  0  0  0  0  0  0  0
   16.2984   -1.5870   -1.8310 H   0  0  0  0  0  0  0  0  0  0  0  0
   14.9670   -2.5589   -2.4187 H   0  0  0  0  0  0  0  0  0  0  0  0
   16.4974   -3.9980   -1.1571 H   0  0  0  0  0  0  0  0  0  0  0  0
   14.9375   -3.9089   -0.3647 H   0  0  0  0  0  0  0  0  0  0  0  0
   16.0859   -1.9734    1.1064 H   0  0  0  0  0  0  0  0  0  0  0  0
   16.2169   -3.6777    1.4684 H   0  0  0  0  0  0  0  0  0  0  0  0
   18.3713   -2.7644    1.7397 H   0  0  0  0  0  0  0  0  0  0  0  0
   18.4101   -3.8383    0.3609 H   0  0  0  0  0  0  0  0  0  0  0  0
   19.7444   -1.8105   -0.0207 H   0  0  0  0  0  0  0  0  0  0  0  0
   18.4607   -1.9518   -1.2119 H   0  0  0  0  0  0  0  0  0  0  0  0
   18.0027    2.2437    2.1233 H   0  0  0  0  0  0  0  0  0  0  0  0
   17.4930    2.7165   -0.4651 H   0  0  0  0  0  0  0  0  0  0  0  0
  1  2  1  0
  2  3  1  0
  3  4  1  0
  3  5  1  0
  5  6  1  0
  6  7  1  0
  7  8  1  0
  8  9  2  0
  8 10  1  0
 10 11  1  0
 11 12  1  0
 12 13  1  0
 13 14  1  0
 14 15  1  0
 15 16  1  0
 16 17  1  0
 16 18  1  0
 18 19  2  0
 18 20  1  0
 20 21  1  0
 21 22  1  0
 21 23  1  0
 23 24  1  0
 24 25  2  0
 25 26  1  0
 26 27  2  0
 27 28  1  0
 28 29  2  0
 23 30  1  0
 15 31  1  0
 31 32  1  0
  6 33  1  0
 33 34  1  0
  5 35  1  0
 35 36  1  0
 35 37  1  0
 37 38  2  0
 37 39  1  0
 39 40  1  0
 40 41  1  0
 40 42  1  0
 39 43  1  0
 43 44  1  0
 44 45  2  0
 44 46  1  0
 46 47  1  0
 47 48  1  0
 47 49  1  0
 46 50  1  0
 50 51  1  0
 50 52  1  0
 52 53  2  0
 52 54  1  0
 54 55  1  0
 55 56  1  0
 56 57  1  0
 57 58  2  0
 58 59  1  0
 59 60  2  0
 60 61  1  0
 59 62  1  0
 62 63  1  0
 63 64  2  0
 63 65  1  0
 65 66  1  0
 66 67  1  0
 67 68  1  0
 68 69  1  0
 69 70  1  0
 70 71  2  0
 70 72  1  0
 65 73  1  0
 73 74  1  0
 74 75  2  0
 74 76  1  0
 76 77  1  0
 77 78  1  0
 77 79  1  0
 76 80  1  0
 80 81  1  0
 81 82  2  0
 81 83  1  0
 83 84  1  0
 84 85  1  0
 85 86  1  0
 86 87  1  0
 87 88  1  0
 88 89  1  0
 89 90  2  0
 89 91  1  0
 91 92  2  0
 92 93  1  0
 93 94  2  0
 14 10  1  0
 29 24  1  0
 61 56  2  0
 93 88  1  0
  1 95  1  0
  1 96  1  0
  1 97  1  0
  2 98  1  0
  2 99  1  0
  3100  1  6
  4101  1  0
  4102  1  0
  4103  1  0
  5104  1  1
  6105  1  1
  7106  1  0
  7107  1  0
 11108  1  0
 11109  1  0
 12110  1  0
 12111  1  0
 13112  1  0
 13113  1  0
 14114  1  6
 15115  1  6
 16116  1  6
 17117  1  0
 17118  1  0
 17119  1  0
 20120  1  0
 21121  1  1
 22122  1  0
 22123  1  0
 22124  1  0
 23125  1  1
 25126  1  0
 26127  1  0
 27128  1  0
 28129  1  0
 29130  1  0
 30131  1  0
 32132  1  0
 32133  1  0
 32134  1  0
 34135  1  0
 34136  1  0
 34137  1  0
 36138  1  0
 36139  1  0
 36140  1  0
 39141  1  6
 40142  1  0
 41143  1  0
 41144  1  0
 41145  1  0
 42146  1  0
 42147  1  0
 42148  1  0
 43149  1  0
 46150  1  1
 47151  1  0
 48152  1  0
 48153  1  0
 48154  1  0
 49155  1  0
 49156  1  0
 49157  1  0
 51158  1  0
 51159  1  0
 51160  1  0
 55161  1  0
 55162  1  0
 57163  1  0
 58164  1  0
 60165  1  0
 61166  1  0
 62167  1  0
 65168  1  6
 66169  1  0
 66170  1  0
 67171  1  0
 67172  1  0
 68173  1  0
 68174  1  0
 69175  1  0
 72176  1  0
 72177  1  0
 73178  1  0
 76179  1  1
 77180  1  0
 78181  1  0
 78182  1  0
 78183  1  0
 79184  1  0
 79185  1  0
 79186  1  0
 80187  1  0
 83188  1  0
 83189  1  0
 84190  1  0
 84191  1  0
 85192  1  0
 85193  1  0
 86194  1  0
 86195  1  0
 87196  1  0
 87197  1  0
 91198  1  0
 92199  1  0
M  END
$$$$

     RDKit          3D

199202  0  0  0  0  0  0  0  0999 V2000
   -8.1036   -4.9704    0.4237 C   0  0  0  0  0  0  0  0  0  0  0  0
   -7.2612   -4.2300   -0.5970 C   0  0  0  0  0  0  0  0  0  0  0  0
   -7.2288   -2.6826   -0.5112 C   0  0  2  0  0  0  0  0  0  0  0  0
   -6.5786   -2.2110   -1.8323 C   0  0  0  0  0  0  0  0  0  0  0  0
   -6.5314   -1.9704    0.7126 C   0  0  1  0  0  0  0  0  0  0  0  0
   -7.4449   -1.6957    1.9739 C   0  0  1  0  0  0  0  0  0  0  0  0
   -8.0644   -0.2824    2.0019 C   0  0  0  0  0  0  0  0  0  0  0  0
   -9.4674   -0.1543    1.4428 C   0  0  0  0  0  0  0  0  0  0  0  0
  -10.4400   -0.4763    2.1321 O   0  0  0  0  0  0  0  0  0  0  0  0
   -9.6370    0.3836    0.1862 N   0  0  0  0  0  0  0  0  0  0  0  0
   -8.6290    1.0327   -0.6265 C   0  0  0  0  0  0  0  0  0  0  0  0
   -9.3350    1.3735   -1.9243 C   0  0  0  0  0  0  0  0  0  0  0  0
  -10.7577    1.6652   -1.4675 C   0  0  0  0  0  0  0  0  0  0  0  0
  -10.9994    0.6888   -0.3050 C   0  0  1  0  0  0  0  0  0  0  0  0
  -11.7937   -0.6008   -0.6655 C   0  0  1  0  0  0  0  0  0  0  0  0
  -13.3287   -0.4668   -0.5060 C   0  0  1  0  0  0  0  0  0  0  0  0
  -13.7581   -0.6451    0.9551 C   0  0  0  0  0  0  0  0  0  0  0  0
  -13.9124    0.7947   -1.1424 C   0  0  0  0  0  0  0  0  0  0  0  0
  -14.2247    0.8267   -2.3319 O   0  0  0  0  0  0  0  0  0  0  0  0
  -14.0424    1.8989   -0.3310 N   0  0  0  0  0  0  0  0  0  0  0  0
  -14.6964    3.1311   -0.7829 C   0  0  2  0  0  0  0  0  0  0  0  0
  -13.6384    4.0965   -1.3220 C   0  0  0  0  0  0  0  0  0  0  0  0
  -15.5163    3.7854    0.3684 C   0  0  1  0  0  0  0  0  0  0  0  0
  -16.6932    2.9352    0.8227 C   0  0  0  0  0  0  0  0  0  0  0  0
  -17.7542    2.6842   -0.0648 C   0  0  0  0  0  0  0  0  0  0  0  0
  -18.8517    1.9136    0.3274 C   0  0  0  0  0  0  0  0  0  0  0  0
  -18.9099    1.3893    1.6145 C   0  0  0  0  0  0  0  0  0  0  0  0
  -17.8707    1.6324    2.5103 C   0  0  0  0  0  0  0  0  0  0  0  0
  -16.7727    2.4022    2.1181 C   0  0  0  0  0  0  0  0  0  0  0  0
  -14.6454    4.0614    1.4769 O   0  0  0  0  0  0  0  0  0  0  0  0
  -11.4440   -1.0119   -2.0027 O   0  0  0  0  0  0  0  0  0  0  0  0
  -11.4757   -2.4226   -2.1796 C   0  0  0  0  0  0  0  0  0  0  0  0
   -8.4282   -2.7094    2.1343 O   0  0  0  0  0  0  0  0  0  0  0  0
   -8.8608   -2.8973    3.4755 C   0  0  0  0  0  0  0  0  0  0  0  0
   -5.2040   -2.5490    1.0927 N   0  0  0  0  0  0  0  0  0  0  0  0
   -5.1728   -3.7755    1.8873 C   0  0  0  0  0  0  0  0  0  0  0  0
   -3.9921   -2.2389    0.4711 C   0  0  0  0  0  0  0  0  0  0  0  0
   -3.1263   -3.1213    0.3489 O   0  0  0  0  0  0  0  0  0  0  0  0
   -3.7123   -0.7945   -0.0849 C   0  0  1  0  0  0  0  0  0  0  0  0
   -3.7179    0.4215    0.8844 C   0  0  0  0  0  0  0  0  0  0  0  0
   -4.0160    0.1058    2.3482 C   0  0  0  0  0  0  0  0  0  0  0  0
   -4.6479    1.5298    0.3718 C   0  0  0  0  0  0  0  0  0  0  0  0
   -2.4462   -0.8587   -0.8568 N   0  0  0  0  0  0  0  0  0  0  0  0
   -1.2274   -1.0313   -0.1989 C   0  0  0  0  0  0  0  0  0  0  0  0
   -1.0932   -0.8554    1.0118 O   0  0  0  0  0  0  0  0  0  0  0  0
   -0.0611   -1.4606   -1.1285 C   0  0  1  0  0  0  0  0  0  0  0  0
    0.7907   -0.2994   -1.7229 C   0  0  0  0  0  0  0  0  0  0  0  0
    0.5730   -0.1882   -3.2381 C   0  0  0  0  0  0  0  0  0  0  0  0
    0.5369    1.0718   -1.0875 C   0  0  0  0  0  0  0  0  0  0  0  0
    0.7120   -2.5529   -0.4966 N   0  0  0  0  0  0  0  0  0  0  0  0
    0.2029   -3.9011   -0.6878 C   0  0  0  0  0  0  0  0  0  0  0  0
    1.5534   -2.3668    0.5954 C   0  0  0  0  0  0  0  0  0  0  0  0
    1.9626   -3.2870    1.2941 O   0  0  0  0  0  0  0  0  0  0  0  0
    1.8841   -1.0664    0.7947 O   0  0  0  0  0  0  0  0  0  0  0  0
    2.7284   -0.8011    1.9213 C   0  0  0  0  0  0  0  0  0  0  0  0
    4.1584   -0.6619    1.4636 C   0  0  0  0  0  0  0  0  0  0  0  0
    4.7192    0.5943    1.2043 C   0  0  0  0  0  0  0  0  0  0  0  0
    6.0426    0.7037    0.7654 C   0  0  0  0  0  0  0  0  0  0  0  0
    6.8242   -0.4401    0.5548 C   0  0  0  0  0  0  0  0  0  0  0  0
    6.2644   -1.6906    0.8088 C   0  0  0  0  0  0  0  0  0  0  0  0
    4.9451   -1.8012    1.2582 C   0  0  0  0  0  0  0  0  0  0  0  0
    8.1330   -0.2506    0.0724 N   0  0  0  0  0  0  0  0  0  0  0  0
    9.0252   -1.2181   -0.3693 C   0  0  0  0  0  0  0  0  0  0  0  0
    8.8337   -2.4308   -0.3883 O   0  0  0  0  0  0  0  0  0  0  0  0
   10.2462   -0.6022   -1.0987 C   0  0  1  0  0  0  0  0  0  0  0  0
    9.7778   -0.2856   -2.5299 C   0  0  0  0  0  0  0  0  0  0  0  0
   10.9241    0.0281   -3.4926 C   0  0  0  0  0  0  0  0  0  0  0  0
   10.3839    0.2186   -4.9131 C   0  0  0  0  0  0  0  0  0  0  0  0
   11.4016    0.6733   -5.8363 N   0  0  0  0  0  0  0  0  0  0  0  0
   11.7934    1.9802   -5.8293 C   0  0  0  0  0  0  0  0  0  0  0  0
   11.4630    2.8259   -5.0106 O   0  0  0  0  0  0  0  0  0  0  0  0
   12.6194    2.2684   -6.8641 N   0  0  0  0  0  0  0  0  0  0  0  0
   10.7420    0.6037   -0.4192 N   0  0  0  0  0  0  0  0  0  0  0  0
   11.4215    0.4249    0.7800 C   0  0  0  0  0  0  0  0  0  0  0  0
   11.4536   -0.6490    1.3756 O   0  0  0  0  0  0  0  0  0  0  0  0
   12.1778    1.6733    1.2907 C   0  0  1  0  0  0  0  0  0  0  0  0
   11.5753    2.2689    2.5818 C   0  0  0  0  0  0  0  0  0  0  0  0
   11.5356    1.3065    3.7724 C   0  0  0  0  0  0  0  0  0  0  0  0
   10.1757    2.8355    2.3307 C   0  0  0  0  0  0  0  0  0  0  0  0
   13.5654    1.2510    1.4736 N   0  0  0  0  0  0  0  0  0  0  0  0
   14.4255    1.2328    0.3968 C   0  0  0  0  0  0  0  0  0  0  0  0
   14.1352    1.7177   -0.6926 O   0  0  0  0  0  0  0  0  0  0  0  0
   15.7289    0.5111    0.6773 C   0  0  0  0  0  0  0  0  0  0  0  0
   16.8758    0.9714   -0.2212 C   0  0  0  0  0  0  0  0  0  0  0  0
   17.4102    2.3724    0.0956 C   0  0  0  0  0  0  0  0  0  0  0  0
   17.9843    2.5934    1.4994 C   0  0  0  0  0  0  0  0  0  0  0  0
   19.3286    1.9096    1.7717 C   0  0  0  0  0  0  0  0  0  0  0  0
   19.2476    0.4755    1.9650 N   0  0  0  0  0  0  0  0  0  0  0  0
   19.9511   -0.4352    1.2474 C   0  0  0  0  0  0  0  0  0  0  0  0
   20.6973   -0.2604    0.3010 O   0  0  0  0  0  0  0  0  0  0  0  0
   19.6682   -1.7547    1.8241 C   0  0  0  0  0  0  0  0  0  0  0  0
   18.8753   -1.5718    2.8806 C   0  0  0  0  0  0  0  0  0  0  0  0
   18.6289   -0.1323    3.0086 C   0  0  0  0  0  0  0  0  0  0  0  0
   17.9832    0.3630    3.9135 O   0  0  0  0  0  0  0  0  0  0  0  0
   -9.1252   -4.5770    0.4561 H   0  0  0  0  0  0  0  0  0  0  0  0
   -7.6719   -4.9313    1.4255 H   0  0  0  0  0  0  0  0  0  0  0  0
   -8.1687   -6.0311    0.1545 H   0  0  0  0  0  0  0  0  0  0  0  0
   -7.6783   -4.5047   -1.5760 H   0  0  0  0  0  0  0  0  0  0  0  0
   -6.2462   -4.6345   -0.6041 H   0  0  0  0  0  0  0  0  0  0  0  0
   -8.2693   -2.3269   -0.5465 H   0  0  0  0  0  0  0  0  0  0  0  0
   -6.5613   -1.1204   -1.9085 H   0  0  0  0  0  0  0  0  0  0  0  0
   -7.1413   -2.5813   -2.6986 H   0  0  0  0  0  0  0  0  0  0  0  0
   -5.5525   -2.5777   -1.9250 H   0  0  0  0  0  0  0  0  0  0  0  0
   -6.2743   -0.9746    0.3482 H   0  0  0  0  0  0  0  0  0  0  0  0
   -6.7763   -1.7257    2.8465 H   0  0  0  0  0  0  0  0  0  0  0  0
   -8.1608    0.0218    3.0539 H   0  0  0  0  0  0  0  0  0  0  0  0
   -7.3924    0.4645    1.5776 H   0  0  0  0  0  0  0  0  0  0  0  0
   -7.7612    0.3913   -0.7728 H   0  0  0  0  0  0  0  0  0  0  0  0
   -8.3090    1.9417   -0.1048 H   0  0  0  0  0  0  0  0  0  0  0  0
   -8.8730    2.2248   -2.4350 H   0  0  0  0  0  0  0  0  0  0  0  0
   -9.3204    0.5180   -2.6111 H   0  0  0  0  0  0  0  0  0  0  0  0
  -11.4791    1.5861   -2.2829 H   0  0  0  0  0  0  0  0  0  0  0  0
  -10.8035    2.6925   -1.0858 H   0  0  0  0  0  0  0  0  0  0  0  0
  -11.5074    1.2100    0.5143 H   0  0  0  0  0  0  0  0  0  0  0  0
  -11.4682   -1.4011    0.0122 H   0  0  0  0  0  0  0  0  0  0  0  0
  -13.8139   -1.2875   -1.0539 H   0  0  0  0  0  0  0  0  0  0  0  0
  -13.2206    0.0263    1.6304 H   0  0  0  0  0  0  0  0  0  0  0  0
  -14.8298   -0.4562    1.0793 H   0  0  0  0  0  0  0  0  0  0  0  0
  -13.5598   -1.6694    1.2875 H   0  0  0  0  0  0  0  0  0  0  0  0
  -13.8427    1.8439    0.6633 H   0  0  0  0  0  0  0  0  0  0  0  0
  -15.3700    2.8824   -1.6126 H   0  0  0  0  0  0  0  0  0  0  0  0
  -12.8751    4.3220   -0.5694 H   0  0  0  0  0  0  0  0  0  0  0  0
  -13.1257    3.6627   -2.1864 H   0  0  0  0  0  0  0  0  0  0  0  0
  -14.0968    5.0382   -1.6412 H   0  0  0  0  0  0  0  0  0  0  0  0
  -15.9242    4.7494    0.0367 H   0  0  0  0  0  0  0  0  0  0  0  0
  -17.7361    3.0809   -1.0778 H   0  0  0  0  0  0  0  0  0  0  0  0
  -19.6622    1.7259   -0.3721 H   0  0  0  0  0  0  0  0  0  0  0  0
  -19.7634    0.7897    1.9223 H   0  0  0  0  0  0  0  0  0  0  0  0
  -17.9160    1.2278    3.5185 H   0  0  0  0  0  0  0  0  0  0  0  0
  -15.9797    2.5830    2.8398 H   0  0  0  0  0  0  0  0  0  0  0  0
  -14.1706    4.8812    1.2623 H   0  0  0  0  0  0  0  0  0  0  0  0
  -11.2424   -2.6416   -3.2249 H   0  0  0  0  0  0  0  0  0  0  0  0
  -10.7182   -2.8985   -1.5502 H   0  0  0  0  0  0  0  0  0  0  0  0
  -12.4634   -2.8289   -1.9526 H   0  0  0  0  0  0  0  0  0  0  0  0
   -9.1898   -1.9612    3.9348 H   0  0  0  0  0  0  0  0  0  0  0  0
   -9.7010   -3.5958    3.4658 H   0  0  0  0  0  0  0  0  0  0  0  0
   -8.0520   -3.3364    4.0671 H   0  0  0  0  0  0  0  0  0  0  0  0
   -4.2389   -3.8085    2.4638 H   0  0  0  0  0  0  0  0  0  0  0  0
   -5.9976   -3.8109    2.6005 H   0  0  0  0  0  0  0  0  0  0  0  0
   -5.1898   -4.6506    1.2349 H   0  0  0  0  0  0  0  0  0  0  0  0
   -4.4600   -0.6295   -0.8651 H   0  0  0  0  0  0  0  0  0  0  0  0
   -2.7266    0.8940    0.8764 H   0  0  0  0  0  0  0  0  0  0  0  0
   -5.0446   -0.2211    2.4951 H   0  0  0  0  0  0  0  0  0  0  0  0
   -3.8791    1.0010    2.9644 H   0  0  0  0  0  0  0  0  0  0  0  0
   -3.3365   -0.6600    2.7368 H   0  0  0  0  0  0  0  0  0  0  0  0
   -4.3211    1.8752   -0.6129 H   0  0  0  0  0  0  0  0  0  0  0  0
   -5.6804    1.1879    0.2844 H   0  0  0  0  0  0  0  0  0  0  0  0
   -4.6356    2.3888    1.0488 H   0  0  0  0  0  0  0  0  0  0  0  0
   -2.5209   -1.3423   -1.7416 H   0  0  0  0  0  0  0  0  0  0  0  0
   -0.5365   -1.9512   -1.9889 H   0  0  0  0  0  0  0  0  0  0  0  0
    1.8558   -0.5342   -1.6022 H   0  0  0  0  0  0  0  0  0  0  0  0
    1.2036    0.6000   -3.6636 H   0  0  0  0  0  0  0  0  0  0  0  0
   -0.4689    0.0420   -3.4771 H   0  0  0  0  0  0  0  0  0  0  0  0
    0.8383   -1.1276   -3.7348 H   0  0  0  0  0  0  0  0  0  0  0  0
   -0.4778    1.4273   -1.2907 H   0  0  0  0  0  0  0  0  0  0  0  0
    0.6892    1.0558   -0.0038 H   0  0  0  0  0  0  0  0  0  0  0  0
    1.2301    1.8153   -1.4985 H   0  0  0  0  0  0  0  0  0  0  0  0
    0.9311   -4.6520   -0.3639 H   0  0  0  0  0  0  0  0  0  0  0  0
   -0.7099   -4.0236   -0.1002 H   0  0  0  0  0  0  0  0  0  0  0  0
   -0.0118   -4.0673   -1.7471 H   0  0  0  0  0  0  0  0  0  0  0  0
    2.3824    0.1406    2.3632 H   0  0  0  0  0  0  0  0  0  0  0  0
    2.6351   -1.5529    2.7154 H   0  0  0  0  0  0  0  0  0  0  0  0
    4.1255    1.4946    1.3408 H   0  0  0  0  0  0  0  0  0  0  0  0
    6.4447    1.6937    0.5730 H   0  0  0  0  0  0  0  0  0  0  0  0
    6.8289   -2.6101    0.6722 H   0  0  0  0  0  0  0  0  0  0  0  0
    4.5367   -2.7931    1.4426 H   0  0  0  0  0  0  0  0  0  0  0  0
    8.4570    0.7047   -0.0203 H   0  0  0  0  0  0  0  0  0  0  0  0
   11.0489   -1.3494   -1.1046 H   0  0  0  0  0  0  0  0  0  0  0  0
    9.0774    0.5623   -2.5167 H   0  0  0  0  0  0  0  0  0  0  0  0
    9.2127   -1.1433   -2.9237 H   0  0  0  0  0  0  0  0  0  0  0  0
   11.6591   -0.7842   -3.4868 H   0  0  0  0  0  0  0  0  0  0  0  0
   11.4488    0.9308   -3.1647 H   0  0  0  0  0  0  0  0  0  0  0  0
    9.9950   -0.7300   -5.3002 H   0  0  0  0  0  0  0  0  0  0  0  0
    9.5620    0.9468   -4.9240 H   0  0  0  0  0  0  0  0  0  0  0  0
   11.3926    0.2604   -6.7602 H   0  0  0  0  0  0  0  0  0  0  0  0
   13.2982    1.5573   -7.0898 H   0  0  0  0  0  0  0  0  0  0  0  0
   13.0207    3.1975   -6.7822 H   0  0  0  0  0  0  0  0  0  0  0  0
   11.2000    1.2812   -1.0219 H   0  0  0  0  0  0  0  0  0  0  0  0
   12.1587    2.4468    0.5129 H   0  0  0  0  0  0  0  0  0  0  0  0
   12.2191    3.1099    2.8768 H   0  0  0  0  0  0  0  0  0  0  0  0
   12.5204    0.8788    3.9822 H   0  0  0  0  0  0  0  0  0  0  0  0
   10.8318    0.4848    3.6104 H   0  0  0  0  0  0  0  0  0  0  0  0
   11.2156    1.8366    4.6768 H   0  0  0  0  0  0  0  0  0  0  0  0
    9.4598    2.0487    2.0722 H   0  0  0  0  0  0  0  0  0  0  0  0
   10.1914    3.5658    1.5150 H   0  0  0  0  0  0  0  0  0  0  0  0
    9.8027    3.3457    3.2262 H   0  0  0  0  0  0  0  0  0  0  0  0
   13.7211    0.5409    2.1811 H   0  0  0  0  0  0  0  0  0  0  0  0
   15.5372   -0.5528    0.4875 H   0  0  0  0  0  0  0  0  0  0  0  0
   15.9902    0.6036    1.7354 H   0  0  0  0  0  0  0  0  0  0  0  0
   17.6893    0.2417   -0.1651 H   0  0  0  0  0  0  0  0  0  0  0  0
   16.5471    0.9596   -1.2695 H   0  0  0  0  0  0  0  0  0  0  0  0
   18.1781    2.6256   -0.6457 H   0  0  0  0  0  0  0  0  0  0  0  0
   16.5997    3.0954   -0.0560 H   0  0  0  0  0  0  0  0  0  0  0  0
   18.1528    3.6721    1.6070 H   0  0  0  0  0  0  0  0  0  0  0  0
   17.2470    2.3329    2.2653 H   0  0  0  0  0  0  0  0  0  0  0  0
   19.7446    2.3233    2.6977 H   0  0  0  0  0  0  0  0  0  0  0  0
   20.0370    2.1327    0.9650 H   0  0  0  0  0  0  0  0  0  0  0  0
   20.0664   -2.6720    1.4289 H   0  0  0  0  0  0  0  0  0  0  0  0
   18.4731   -2.3060    3.5550 H   0  0  0  0  0  0  0  0  0  0  0  0
  1  2  1  0
  2  3  1  0
  3  4  1  0
  3  5  1  0
  5  6  1  0
  6  7  1  0
  7  8  1  0
  8  9  2  0
  8 10  1  0
 10 11  1  0
 11 12  1  0
 12 13  1  0
 13 14  1  0
 14 15  1  0
 15 16  1  0
 16 17  1  0
 16 18  1  0
 18 19  2  0
 18 20  1  0
 20 21  1  0
 21 22  1  0
 21 23  1  0
 23 24  1  0
 24 25  2  0
 25 26  1  0
 26 27  2  0
 27 28  1  0
 28 29  2  0
 23 30  1  0
 15 31  1  0
 31 32  1  0
  6 33  1  0
 33 34  1  0
  5 35  1  0
 35 36  1  0
 35 37  1  0
 37 38  2  0
 37 39  1  0
 39 40  1  0
 40 41  1  0
 40 42  1  0
 39 43  1  0
 43 44  1  0
 44 45  2  0
 44 46  1  0
 46 47  1  0
 47 48  1  0
 47 49  1  0
 46 50  1  0
 50 51  1  0
 50 52  1  0
 52 53  2  0
 52 54  1  0
 54 55  1  0
 55 56  1  0
 56 57  1  0
 57 58  2  0
 58 59  1  0
 59 60  2  0
 60 61  1  0
 59 62  1  0
 62 63  1  0
 63 64  2  0
 63 65  1  0
 65 66  1  0
 66 67  1  0
 67 68  1  0
 68 69  1  0
 69 70  1  0
 70 71  2  0
 70 72  1  0
 65 73  1  0
 73 74  1  0
 74 75  2  0
 74 76  1  0
 76 77  1  0
 77 78  1  0
 77 79  1  0
 76 80  1  0
 80 81  1  0
 81 82  2  0
 81 83  1  0
 83 84  1  0
 84 85  1  0
 85 86  1  0
 86 87  1  0
 87 88  1  0
 88 89  1  0
 89 90  2  0
 89 91  1  0
 91 92  2  0
 92 93  1  0
 93 94  2  0
 14 10  1  0
 29 24  1  0
 61 56  2  0
 93 88  1  0
  1 95  1  0
  1 96  1  0
  1 97  1  0
  2 98  1  0
  2 99  1  0
  3100  1  6
  4101  1  0
  4102  1  0
  4103  1  0
  5104  1  6
  6105  1  1
  7106  1  0
  7107  1  0
 11108  1  0
 11109  1  0
 12110  1  0
 12111  1  0
 13112  1  0
 13113  1  0
 14114  1  1
 15115  1  1
 16116  1  6
 17117  1  0
 17118  1  0
 17119  1  0
 20120  1  0
 21121  1  6
 22122  1  0
 22123  1  0
 22124  1  0
 23125  1  6
 25126  1  0
 26127  1  0
 27128  1  0
 28129  1  0
 29130  1  0
 30131  1  0
 32132  1  0
 32133  1  0
 32134  1  0
 34135  1  0
 34136  1  0
 34137  1  0
 36138  1  0
 36139  1  0
 36140  1  0
 39141  1  6
 40142  1  0
 41143  1  0
 41144  1  0
 41145  1  0
 42146  1  0
 42147  1  0
 42148  1  0
 43149  1  0
 46150  1  6
 47151  1  0
 48152  1  0
 48153  1  0
 48154  1  0
 49155  1  0
 49156  1  0
 49157  1  0
 51158  1  0
 51159  1  0
 51160  1  0
 55161  1  0
 55162  1  0
 57163  1  0
 58164  1  0
 60165  1  0
 61166  1  0
 62167  1  0
 65168  1  6
 66169  1  0
 66170  1  0
 67171  1  0
 67172  1  0
 68173  1  0
 68174  1  0
 69175  1  0
 72176  1  0
 72177  1  0
 73178  1  0
 76179  1  6
 77180  1  0
 78181  1  0
 78182  1  0
 78183  1  0
 79184  1  0
 79185  1  0
 79186  1  0
 80187  1  0
 83188  1  0
 83189  1  0
 84190  1  0
 84191  1  0
 85192  1  0
 85193  1  0
 86194  1  0
 86195  1  0
 87196  1  0
 87197  1  0
 91198  1  0
 92199  1  0
M  END
$$$$

     RDKit          3D

199202  0  0  0  0  0  0  0  0999 V2000
   -4.8297    4.7771    0.0036 C   0  0  0  0  0  0  0  0  0  0  0  0
   -6.0085    4.5380   -0.9214 C   0  0  0  0  0  0  0  0  0  0  0  0
   -5.8866    3.3014   -1.8506 C   0  0  2  0  0  0  0  0  0  0  0  0
   -6.9904    3.4503   -2.9076 C   0  0  0  0  0  0  0  0  0  0  0  0
   -5.9342    1.9460   -1.0478 C   0  0  1  0  0  0  0  0  0  0  0  0
   -6.4056    0.6323   -1.7832 C   0  0  1  0  0  0  0  0  0  0  0  0
   -7.9222    0.4959   -1.9875 C   0  0  0  0  0  0  0  0  0  0  0  0
   -8.7352    0.6586   -0.7190 C   0  0  0  0  0  0  0  0  0  0  0  0
   -8.2769    0.3471    0.3841 O   0  0  0  0  0  0  0  0  0  0  0  0
  -10.0218    1.1325   -0.8681 N   0  0  0  0  0  0  0  0  0  0  0  0
  -10.6736    1.5032   -2.1217 C   0  0  0  0  0  0  0  0  0  0  0  0
  -12.1064    1.8529   -1.7504 C   0  0  0  0  0  0  0  0  0  0  0  0
  -11.9821    2.2579   -0.2894 C   0  0  0  0  0  0  0  0  0  0  0  0
  -10.9436    1.2854    0.2722 C   0  0  1  0  0  0  0  0  0  0  0  0
  -11.4488   -0.1066    0.7812 C   0  0  1  0  0  0  0  0  0  0  0  0
  -12.4050   -0.0898    2.0080 C   0  0  1  0  0  0  0  0  0  0  0  0
  -11.9122    0.8674    3.0972 C   0  0  0  0  0  0  0  0  0  0  0  0
  -13.8839    0.1615    1.6927 C   0  0  0  0  0  0  0  0  0  0  0  0
  -14.3164    0.4513    0.5860 O   0  0  0  0  0  0  0  0  0  0  0  0
  -14.7134    0.0206    2.7905 N   0  0  0  0  0  0  0  0  0  0  0  0
  -16.1506    0.3112    2.7376 C   0  0  2  0  0  0  0  0  0  0  0  0
  -16.4669    1.3325    3.8342 C   0  0  0  0  0  0  0  0  0  0  0  0
  -17.0202   -0.9639    2.9175 C   0  0  1  0  0  0  0  0  0  0  0  0
  -17.0833   -1.8362    1.6740 C   0  0  0  0  0  0  0  0  0  0  0  0
  -18.1401   -1.6373    0.7654 C   0  0  0  0  0  0  0  0  0  0  0  0
  -18.2447   -2.4037   -0.3959 C   0  0  0  0  0  0  0  0  0  0  0  0
  -17.2950   -3.3838   -0.6693 C   0  0  0  0  0  0  0  0  0  0  0  0
  -16.2366   -3.5893    0.2130 C   0  0  0  0  0  0  0  0  0  0  0  0
  -16.1256   -2.8174    1.3722 C   0  0  0  0  0  0  0  0  0  0  0  0
  -16.6055   -1.6823    4.0859 O   0  0  0  0  0  0  0  0  0  0  0  0
  -11.9386   -0.8858   -0.3223 O   0  0  0  0  0  0  0  0  0  0  0  0
  -12.1480   -2.2604   -0.0428 C   0  0  0  0  0  0  0  0  0  0  0  0
   -5.8071    0.5408   -3.0831 O   0  0  0  0  0  0  0  0  0  0  0  0
   -5.2670   -0.7444   -3.3584 C   0  0  0  0  0  0  0  0  0  0  0  0
   -4.6509    1.6635   -0.3007 N   0  0  0  0  0  0  0  0  0  0  0  0
   -4.8256    1.2273    1.0764 C   0  0  0  0  0  0  0  0  0  0  0  0
   -3.4788    1.4253   -1.0270 C   0  0  0  0  0  0  0  0  0  0  0  0
   -3.3903    1.7539   -2.2197 O   0  0  0  0  0  0  0  0  0  0  0  0
   -2.1719    0.8751   -0.3630 C   0  0  1  0  0  0  0  0  0  0  0  0
   -1.1405    1.9842   -0.0101 C   0  0  0  0  0  0  0  0  0  0  0  0
   -1.5717    2.8931    1.1424 C   0  0  0  0  0  0  0  0  0  0  0  0
   -0.7478    2.8374   -1.2183 C   0  0  0  0  0  0  0  0  0  0  0  0
   -2.2742   -0.0778    0.7433 N   0  0  0  0  0  0  0  0  0  0  0  0
   -2.5608   -1.4160    0.5370 C   0  0  0  0  0  0  0  0  0  0  0  0
   -2.9738   -1.8521   -0.5341 O   0  0  0  0  0  0  0  0  0  0  0  0
   -2.1184   -2.3171    1.7176 C   0  0  1  0  0  0  0  0  0  0  0  0
   -3.1075   -3.4306    2.1419 C   0  0  0  0  0  0  0  0  0  0  0  0
   -4.4647   -2.8248    2.5316 C   0  0  0  0  0  0  0  0  0  0  0  0
   -3.3218   -4.5650    1.1420 C   0  0  0  0  0  0  0  0  0  0  0  0
   -0.7411   -2.8050    1.4718 N   0  0  0  0  0  0  0  0  0  0  0  0
   -0.3810   -3.2832    0.1367 C   0  0  0  0  0  0  0  0  0  0  0  0
    0.2610   -2.4197    2.3566 C   0  0  0  0  0  0  0  0  0  0  0  0
    0.0535   -1.8423    3.4154 O   0  0  0  0  0  0  0  0  0  0  0  0
    1.5042   -2.7325    1.9024 O   0  0  0  0  0  0  0  0  0  0  0  0
    2.5823   -2.3308    2.7499 C   0  0  0  0  0  0  0  0  0  0  0  0
    3.8336   -2.2741    1.9077 C   0  0  0  0  0  0  0  0  0  0  0  0
    4.1510   -1.1182    1.1842 C   0  0  0  0  0  0  0  0  0  0  0  0
    5.2973   -1.0647    0.3790 C   0  0  0  0  0  0  0  0  0  0  0  0
    6.1487   -2.1646    0.2858 C   0  0  0  0  0  0  0  0  0  0  0  0
    5.8233   -3.3286    0.9926 C   0  0  0  0  0  0  0  0  0  0  0  0
    4.6765   -3.3863    1.7973 C   0  0  0  0  0  0  0  0  0  0  0  0
    7.3088   -2.1957   -0.5160 N   0  0  0  0  0  0  0  0  0  0  0  0
    7.9134   -1.1279   -1.1619 C   0  0  0  0  0  0  0  0  0  0  0  0
    7.5887    0.0559   -1.0742 O   0  0  0  0  0  0  0  0  0  0  0  0
    9.0555   -1.5714   -2.1136 C   0  0  1  0  0  0  0  0  0  0  0  0
    8.4520   -1.7859   -3.5069 C   0  0  0  0  0  0  0  0  0  0  0  0
    9.4406   -2.0027   -4.6586 C   0  0  0  0  0  0  0  0  0  0  0  0
   10.3483   -3.2277   -4.5342 C   0  0  0  0  0  0  0  0  0  0  0  0
   11.4903   -3.0423   -3.6672 N   0  0  0  0  0  0  0  0  0  0  0  0
   12.5065   -2.1951   -3.9965 C   0  0  0  0  0  0  0  0  0  0  0  0
   12.5805   -1.5347   -5.0203 O   0  0  0  0  0  0  0  0  0  0  0  0
   13.4574   -2.1406   -3.0291 N   0  0  0  0  0  0  0  0  0  0  0  0
   10.1006   -0.5586   -2.1169 N   0  0  0  0  0  0  0  0  0  0  0  0
   11.0374   -0.5256   -1.1103 C   0  0  0  0  0  0  0  0  0  0  0  0
   11.0593   -1.3873   -0.2237 O   0  0  0  0  0  0  0  0  0  0  0  0
   12.0567    0.6442   -1.1458 C   0  0  1  0  0  0  0  0  0  0  0  0
   11.4823    1.9775   -0.6079 C   0  0  0  0  0  0  0  0  0  0  0  0
   12.5841    3.0365   -0.4516 C   0  0  0  0  0  0  0  0  0  0  0  0
   10.3825    2.5594   -1.5007 C   0  0  0  0  0  0  0  0  0  0  0  0
   13.1603    0.1852   -0.2942 N   0  0  0  0  0  0  0  0  0  0  0  0
   14.4564    0.0595   -0.7429 C   0  0  0  0  0  0  0  0  0  0  0  0
   14.8421    0.4127   -1.8559 O   0  0  0  0  0  0  0  0  0  0  0  0
   15.3655   -0.5997    0.2771 C   0  0  0  0  0  0  0  0  0  0  0  0
   16.8179   -0.1292    0.1901 C   0  0  0  0  0  0  0  0  0  0  0  0
   16.9727    1.3343    0.6211 C   0  0  0  0  0  0  0  0  0  0  0  0
   18.4326    1.7883    0.7140 C   0  0  0  0  0  0  0  0  0  0  0  0
   19.1544    1.2050    1.9302 C   0  0  0  0  0  0  0  0  0  0  0  0
   20.4998    1.7332    2.0527 N   0  0  0  0  0  0  0  0  0  0  0  0
   21.5971    1.1955    1.4661 C   0  0  0  0  0  0  0  0  0  0  0  0
   21.6888    0.1941    0.7809 O   0  0  0  0  0  0  0  0  0  0  0  0
   22.7323    2.0654    1.7974 C   0  0  0  0  0  0  0  0  0  0  0  0
   22.2691    3.0737    2.5364 C   0  0  0  0  0  0  0  0  0  0  0  0
   20.8222    2.8835    2.6936 C   0  0  0  0  0  0  0  0  0  0  0  0
   20.1013    3.6599    3.2939 O   0  0  0  0  0  0  0  0  0  0  0  0
   -4.9121    5.7693    0.4639 H   0  0  0  0  0  0  0  0  0  0  0  0
   -4.8048    4.0508    0.8231 H   0  0  0  0  0  0  0  0  0  0  0  0
   -3.8822    4.7389   -0.5456 H   0  0  0  0  0  0  0  0  0  0  0  0
   -6.9269    4.4705   -0.3236 H   0  0  0  0  0  0  0  0  0  0  0  0
   -6.1116    5.4395   -1.5407 H   0  0  0  0  0  0  0  0  0  0  0  0
   -4.9416    3.3955   -2.3911 H   0  0  0  0  0  0  0  0  0  0  0  0
   -7.9832    3.3963   -2.4503 H   0  0  0  0  0  0  0  0  0  0  0  0
   -6.9065    2.6975   -3.6964 H   0  0  0  0  0  0  0  0  0  0  0  0
   -6.9162    4.4224   -3.4097 H   0  0  0  0  0  0  0  0  0  0  0  0
   -6.6707    2.1338   -0.2556 H   0  0  0  0  0  0  0  0  0  0  0  0
   -6.0889   -0.2187   -1.1637 H   0  0  0  0  0  0  0  0  0  0  0  0
   -8.1396   -0.5105   -2.3697 H   0  0  0  0  0  0  0  0  0  0  0  0
   -8.2608    1.1706   -2.7727 H   0  0  0  0  0  0  0  0  0  0  0  0
  -10.1558    2.3789   -2.5256 H   0  0  0  0  0  0  0  0  0  0  0  0
  -10.6146    0.6858   -2.8455 H   0  0  0  0  0  0  0  0  0  0  0  0
  -12.7549    0.9795   -1.8589 H   0  0  0  0  0  0  0  0  0  0  0  0
  -12.5136    2.6509   -2.3780 H   0  0  0  0  0  0  0  0  0  0  0  0
  -11.5741    3.2775   -0.2462 H   0  0  0  0  0  0  0  0  0  0  0  0
  -12.9296    2.2874    0.2419 H   0  0  0  0  0  0  0  0  0  0  0  0
  -10.3885    1.7730    1.0810 H   0  0  0  0  0  0  0  0  0  0  0  0
  -10.5435   -0.6266    1.1274 H   0  0  0  0  0  0  0  0  0  0  0  0
  -12.3847   -1.1065    2.4298 H   0  0  0  0  0  0  0  0  0  0  0  0
  -12.1075    1.9114    2.8313 H   0  0  0  0  0  0  0  0  0  0  0  0
  -12.4166    0.6833    4.0496 H   0  0  0  0  0  0  0  0  0  0  0  0
  -10.8389    0.7503    3.2751 H   0  0  0  0  0  0  0  0  0  0  0  0
  -14.3409   -0.2884    3.6766 H   0  0  0  0  0  0  0  0  0  0  0  0
  -16.3887    0.7753    1.7743 H   0  0  0  0  0  0  0  0  0  0  0  0
  -15.8619    2.2394    3.7068 H   0  0  0  0  0  0  0  0  0  0  0  0
  -16.2486    0.9268    4.8303 H   0  0  0  0  0  0  0  0  0  0  0  0
  -17.5218    1.6278    3.8051 H   0  0  0  0  0  0  0  0  0  0  0  0
  -18.0466   -0.6484    3.1392 H   0  0  0  0  0  0  0  0  0  0  0  0
  -18.8924   -0.8703    0.9536 H   0  0  0  0  0  0  0  0  0  0  0  0
  -19.0655   -2.2293   -1.0867 H   0  0  0  0  0  0  0  0  0  0  0  0
  -17.3750   -3.9774   -1.5751 H   0  0  0  0  0  0  0  0  0  0  0  0
  -15.4875   -4.3468   -0.0096 H   0  0  0  0  0  0  0  0  0  0  0  0
  -15.2730   -2.9932    2.0201 H   0  0  0  0  0  0  0  0  0  0  0  0
  -15.8975   -2.2884    3.8247 H   0  0  0  0  0  0  0  0  0  0  0  0
  -11.3177   -2.6858    0.5249 H   0  0  0  0  0  0  0  0  0  0  0  0
  -13.0827   -2.3922    0.5035 H   0  0  0  0  0  0  0  0  0  0  0  0
  -12.2339   -2.7912   -0.9946 H   0  0  0  0  0  0  0  0  0  0  0  0
   -4.8092   -0.7249   -4.3496 H   0  0  0  0  0  0  0  0  0  0  0  0
   -4.4969   -1.0024   -2.6271 H   0  0  0  0  0  0  0  0  0  0  0  0
   -6.0573   -1.5016   -3.3548 H   0  0  0  0  0  0  0  0  0  0  0  0
   -5.6611    1.7598    1.5441 H   0  0  0  0  0  0  0  0  0  0  0  0
   -5.0314    0.1526    1.0906 H   0  0  0  0  0  0  0  0  0  0  0  0
   -3.9394    1.4506    1.6684 H   0  0  0  0  0  0  0  0  0  0  0  0
   -1.7143    0.2831   -1.1730 H   0  0  0  0  0  0  0  0  0  0  0  0
   -0.2245    1.4743    0.3208 H   0  0  0  0  0  0  0  0  0  0  0  0
   -0.7713    3.5998    1.3906 H   0  0  0  0  0  0  0  0  0  0  0  0
   -2.4562    3.4761    0.8824 H   0  0  0  0  0  0  0  0  0  0  0  0
   -1.7881    2.3262    2.0511 H   0  0  0  0  0  0  0  0  0  0  0  0
    0.0910    3.4959   -0.9639 H   0  0  0  0  0  0  0  0  0  0  0  0
   -0.4327    2.2099   -2.0571 H   0  0  0  0  0  0  0  0  0  0  0  0
   -1.5715    3.4758   -1.5502 H   0  0  0  0  0  0  0  0  0  0  0  0
   -1.8842    0.1958    1.6427 H   0  0  0  0  0  0  0  0  0  0  0  0
   -2.0740   -1.6541    2.5915 H   0  0  0  0  0  0  0  0  0  0  0  0
   -2.6941   -3.8922    3.0501 H   0  0  0  0  0  0  0  0  0  0  0  0
   -5.1084   -3.5878    2.9841 H   0  0  0  0  0  0  0  0  0  0  0  0
   -4.9886   -2.4179    1.6591 H   0  0  0  0  0  0  0  0  0  0  0  0
   -4.3417   -2.0175    3.2632 H   0  0  0  0  0  0  0  0  0  0  0  0
   -2.4005   -5.1337    0.9861 H   0  0  0  0  0  0  0  0  0  0  0  0
   -3.6832   -4.2010    0.1749 H   0  0  0  0  0  0  0  0  0  0  0  0
   -4.0667   -5.2727    1.5237 H   0  0  0  0  0  0  0  0  0  0  0  0
    0.4747   -3.9673    0.1878 H   0  0  0  0  0  0  0  0  0  0  0  0
   -1.2105   -3.8117   -0.3355 H   0  0  0  0  0  0  0  0  0  0  0  0
   -0.1005   -2.4215   -0.4787 H   0  0  0  0  0  0  0  0  0  0  0  0
    2.6950   -3.0636    3.5584 H   0  0  0  0  0  0  0  0  0  0  0  0
    2.4048   -1.3449    3.2010 H   0  0  0  0  0  0  0  0  0  0  0  0
    3.5032   -0.2440    1.2374 H   0  0  0  0  0  0  0  0  0  0  0  0
    5.4880   -0.1483   -0.1670 H   0  0  0  0  0  0  0  0  0  0  0  0
    6.4570   -4.2098    0.9379 H   0  0  0  0  0  0  0  0  0  0  0  0
    4.4476   -4.3043    2.3341 H   0  0  0  0  0  0  0  0  0  0  0  0
    7.8256   -3.0651   -0.5076 H   0  0  0  0  0  0  0  0  0  0  0  0
    9.4837   -2.5095   -1.7450 H   0  0  0  0  0  0  0  0  0  0  0  0
    7.8339   -0.9152   -3.7691 H   0  0  0  0  0  0  0  0  0  0  0  0
    7.7578   -2.6364   -3.4672 H   0  0  0  0  0  0  0  0  0  0  0  0
    8.8383   -2.1267   -5.5694 H   0  0  0  0  0  0  0  0  0  0  0  0
   10.0282   -1.0898   -4.8107 H   0  0  0  0  0  0  0  0  0  0  0  0
    9.7878   -4.0959   -4.1691 H   0  0  0  0  0  0  0  0  0  0  0  0
   10.7387   -3.4728   -5.5297 H   0  0  0  0  0  0  0  0  0  0  0  0
   11.4075   -3.2521   -2.6818 H   0  0  0  0  0  0  0  0  0  0  0  0
   13.7295   -3.0276   -2.6295 H   0  0  0  0  0  0  0  0  0  0  0  0
   14.2407   -1.5449   -3.2761 H   0  0  0  0  0  0  0  0  0  0  0  0
    9.9528    0.2700   -2.6783 H   0  0  0  0  0  0  0  0  0  0  0  0
   12.4116    0.7593   -2.1770 H   0  0  0  0  0  0  0  0  0  0  0  0
   11.0478    1.8023    0.3865 H   0  0  0  0  0  0  0  0  0  0  0  0
   12.1668    3.9820   -0.0932 H   0  0  0  0  0  0  0  0  0  0  0  0
   13.3399    2.7270    0.2770 H   0  0  0  0  0  0  0  0  0  0  0  0
   13.0852    3.2283   -1.4062 H   0  0  0  0  0  0  0  0  0  0  0  0
   10.7056    2.6145   -2.5457 H   0  0  0  0  0  0  0  0  0  0  0  0
    9.4690    1.9645   -1.4442 H   0  0  0  0  0  0  0  0  0  0  0  0
   10.1130    3.5726   -1.1794 H   0  0  0  0  0  0  0  0  0  0  0  0
   12.8784   -0.3566    0.5175 H   0  0  0  0  0  0  0  0  0  0  0  0
   15.3246   -1.6810    0.0879 H   0  0  0  0  0  0  0  0  0  0  0  0
   14.9851   -0.4282    1.2915 H   0  0  0  0  0  0  0  0  0  0  0  0
   17.2038   -0.2552   -0.8293 H   0  0  0  0  0  0  0  0  0  0  0  0
   17.4199   -0.7748    0.8404 H   0  0  0  0  0  0  0  0  0  0  0  0
   16.4764    1.4995    1.5860 H   0  0  0  0  0  0  0  0  0  0  0  0
   16.4602    1.9759   -0.1065 H   0  0  0  0  0  0  0  0  0  0  0  0
   18.4459    2.8837    0.7839 H   0  0  0  0  0  0  0  0  0  0  0  0
   18.9689    1.5308   -0.2068 H   0  0  0  0  0  0  0  0  0  0  0  0
   18.6065    1.4534    2.8466 H   0  0  0  0  0  0  0  0  0  0  0  0
   19.2240    0.1148    1.8520 H   0  0  0  0  0  0  0  0  0  0  0  0
   23.7395    1.8752    1.4708 H   0  0  0  0  0  0  0  0  0  0  0  0
   22.8081    3.9049    2.9551 H   0  0  0  0  0  0  0  0  0  0  0  0
  1  2  1  0
  2  3  1  0
  3  4  1  0
  3  5  1  0
  5  6  1  0
  6  7  1  0
  7  8  1  0
  8  9  2  0
  8 10  1  0
 10 11  1  0
 11 12  1  0
 12 13  1  0
 13 14  1  0
 14 15  1  0
 15 16  1  0
 16 17  1  0
 16 18  1  0
 18 19  2  0
 18 20  1  0
 20 21  1  0
 21 22  1  0
 21 23  1  0
 23 24  1  0
 24 25  2  0
 25 26  1  0
 26 27  2  0
 27 28  1  0
 28 29  2  0
 23 30  1  0
 15 31  1  0
 31 32  1  0
  6 33  1  0
 33 34  1  0
  5 35  1  0
 35 36  1  0
 35 37  1  0
 37 38  2  0
 37 39  1  0
 39 40  1  0
 40 41  1  0
 40 42  1  0
 39 43  1  0
 43 44  1  0
 44 45  2  0
 44 46  1  0
 46 47  1  0
 47 48  1  0
 47 49  1  0
 46 50  1  0
 50 51  1  0
 50 52  1  0
 52 53  2  0
 52 54  1  0
 54 55  1  0
 55 56  1  0
 56 57  1  0
 57 58  2  0
 58 59  1  0
 59 60  2  0
 60 61  1  0
 59 62  1  0
 62 63  1  0
 63 64  2  0
 63 65  1  0
 65 66  1  0
 66 67  1  0
 67 68  1  0
 68 69  1  0
 69 70  1  0
 70 71  2  0
 70 72  1  0
 65 73  1  0
 73 74  1  0
 74 75  2  0
 74 76  1  0
 76 77  1  0
 77 78  1  0
 77 79  1  0
 76 80  1  0
 80 81  1  0
 81 82  2  0
 81 83  1  0
 83 84  1  0
 84 85  1  0
 85 86  1  0
 86 87  1  0
 87 88  1  0
 88 89  1  0
 89 90  2  0
 89 91  1  0
 91 92  2  0
 92 93  1  0
 93 94  2  0
 14 10  1  0
 29 24  1  0
 61 56  2  0
 93 88  1  0
  1 95  1  0
  1 96  1  0
  1 97  1  0
  2 98  1  0
  2 99  1  0
  3100  1  6
  4101  1  0
  4102  1  0
  4103  1  0
  5104  1  1
  6105  1  1
  7106  1  0
  7107  1  0
 11108  1  0
 11109  1  0
 12110  1  0
 12111  1  0
 13112  1  0
 13113  1  0
 14114  1  1
 15115  1  1
 16116  1  1
 17117  1  0
 17118  1  0
 17119  1  0
 20120  1  0
 21121  1  6
 22122  1  0
 22123  1  0
 22124  1  0
 23125  1  1
 25126  1  0
 26127  1  0
 27128  1  0
 28129  1  0
 29130  1  0
 30131  1  0
 32132  1  0
 32133  1  0
 32134  1  0
 34135  1  0
 34136  1  0
 34137  1  0
 36138  1  0
 36139  1  0
 36140  1  0
 39141  1  6
 40142  1  0
 41143  1  0
 41144  1  0
 41145  1  0
 42146  1  0
 42147  1  0
 42148  1  0
 43149  1  0
 46150  1  1
 47151  1  0
 48152  1  0
 48153  1  0
 48154  1  0
 49155  1  0
 49156  1  0
 49157  1  0
 51158  1  0
 51159  1  0
 51160  1  0
 55161  1  0
 55162  1  0
 57163  1  0
 58164  1  0
 60165  1  0
 61166  1  0
 62167  1  0
 65168  1  1
 66169  1  0
 66170  1  0
 67171  1  0
 67172  1  0
 68173  1  0
 68174  1  0
 69175  1  0
 72176  1  0
 72177  1  0
 73178  1  0
 76179  1  6
 77180  1  0
 78181  1  0
 78182  1  0
 78183  1  0
 79184  1  0
 79185  1  0
 79186  1  0
 80187  1  0
 83188  1  0
 83189  1  0
 84190  1  0
 84191  1  0
 85192  1  0
 85193  1  0
 86194  1  0
 86195  1  0
 87196  1  0
 87197  1  0
 91198  1  0
 92199  1  0
M  END
$$$$

     RDKit          3D

199202  0  0  0  0  0  0  0  0999 V2000
   -6.0687    3.7280    0.8138 C   0  0  0  0  0  0  0  0  0  0  0  0
   -5.8727    2.2220    0.9364 C   0  0  0  0  0  0  0  0  0  0  0  0
   -5.6748    1.4657   -0.4097 C   0  0  2  0  0  0  0  0  0  0  0  0
   -6.7609    1.8779   -1.4095 C   0  0  0  0  0  0  0  0  0  0  0  0
   -5.6402   -0.0825   -0.1361 C   0  0  1  0  0  0  0  0  0  0  0  0
   -5.6833   -1.0475   -1.3714 C   0  0  1  0  0  0  0  0  0  0  0  0
   -7.1357   -1.4744   -1.6752 C   0  0  0  0  0  0  0  0  0  0  0  0
   -7.5772   -2.6246   -0.7884 C   0  0  0  0  0  0  0  0  0  0  0  0
   -6.7585   -3.4329   -0.3522 O   0  0  0  0  0  0  0  0  0  0  0  0
   -8.9279   -2.7875   -0.5861 N   0  0  0  0  0  0  0  0  0  0  0  0
   -9.4267   -4.0606   -0.1007 C   0  0  0  0  0  0  0  0  0  0  0  0
  -10.8401   -4.0937   -0.6434 C   0  0  0  0  0  0  0  0  0  0  0  0
  -11.2950   -2.6516   -0.4692 C   0  0  0  0  0  0  0  0  0  0  0  0
  -10.0279   -1.7908   -0.6707 C   0  0  1  0  0  0  0  0  0  0  0  0
   -9.8836   -0.6550    0.3986 C   0  0  1  0  0  0  0  0  0  0  0  0
  -10.9169    0.5046    0.3256 C   0  0  1  0  0  0  0  0  0  0  0  0
  -10.8762    1.2698   -1.0002 C   0  0  0  0  0  0  0  0  0  0  0  0
  -12.3311    0.1091    0.7573 C   0  0  0  0  0  0  0  0  0  0  0  0
  -12.6436    0.0389    1.9420 O   0  0  0  0  0  0  0  0  0  0  0  0
  -13.2218   -0.1911   -0.2495 N   0  0  0  0  0  0  0  0  0  0  0  0
  -14.6063   -0.5639    0.0513 C   0  0  2  0  0  0  0  0  0  0  0  0
  -15.2103   -1.2895   -1.1536 C   0  0  0  0  0  0  0  0  0  0  0  0
  -15.4784    0.6222    0.5639 C   0  0  1  0  0  0  0  0  0  0  0  0
  -15.6437    1.7454   -0.4453 C   0  0  0  0  0  0  0  0  0  0  0  0
  -16.7337    1.7948   -1.3276 C   0  0  0  0  0  0  0  0  0  0  0  0
  -16.8524    2.8256   -2.2622 C   0  0  0  0  0  0  0  0  0  0  0  0
  -15.8819    3.8215   -2.3290 C   0  0  0  0  0  0  0  0  0  0  0  0
  -14.7933    3.7930   -1.4583 C   0  0  0  0  0  0  0  0  0  0  0  0
  -14.6810    2.7672   -0.5182 C   0  0  0  0  0  0  0  0  0  0  0  0
  -16.7662    0.1354    0.9599 O   0  0  0  0  0  0  0  0  0  0  0  0
   -9.8423   -1.2748    1.6983 O   0  0  0  0  0  0  0  0  0  0  0  0
   -9.3278   -0.4575    2.7413 C   0  0  0  0  0  0  0  0  0  0  0  0
   -5.1303   -0.4357   -2.5467 O   0  0  0  0  0  0  0  0  0  0  0  0
   -4.3812   -1.3566   -3.3338 C   0  0  0  0  0  0  0  0  0  0  0  0
   -4.5372   -0.4699    0.7985 N   0  0  0  0  0  0  0  0  0  0  0  0
   -4.9734   -1.0904    2.0465 C   0  0  0  0  0  0  0  0  0  0  0  0
   -3.2100   -0.2498    0.4389 C   0  0  0  0  0  0  0  0  0  0  0  0
   -2.9003    0.2007   -0.6710 O   0  0  0  0  0  0  0  0  0  0  0  0
   -2.0730   -0.5360    1.4591 C   0  0  1  0  0  0  0  0  0  0  0  0
   -1.3125   -1.8594    1.1946 C   0  0  0  0  0  0  0  0  0  0  0  0
   -2.1655   -3.0912    1.5078 C   0  0  0  0  0  0  0  0  0  0  0  0
   -0.7400   -1.9898   -0.2234 C   0  0  0  0  0  0  0  0  0  0  0  0
   -1.1545    0.6093    1.3719 N   0  0  0  0  0  0  0  0  0  0  0  0
   -1.4680    1.7822    2.0374 C   0  0  0  0  0  0  0  0  0  0  0  0
   -2.3425    1.8427    2.8998 O   0  0  0  0  0  0  0  0  0  0  0  0
   -0.5577    2.9820    1.6733 C   0  0  1  0  0  0  0  0  0  0  0  0
   -1.3625    4.3113    1.6839 C   0  0  0  0  0  0  0  0  0  0  0  0
   -2.3819    4.3180    0.5374 C   0  0  0  0  0  0  0  0  0  0  0  0
   -0.4737    5.5539    1.5568 C   0  0  0  0  0  0  0  0  0  0  0  0
    0.6064    3.0155    2.5911 N   0  0  0  0  0  0  0  0  0  0  0  0
    0.3697    2.8869    4.0239 C   0  0  0  0  0  0  0  0  0  0  0  0
    1.9022    3.2190    2.1478 C   0  0  0  0  0  0  0  0  0  0  0  0
    2.8712    3.3276    2.8921 O   0  0  0  0  0  0  0  0  0  0  0  0
    1.9796    3.3146    0.7947 O   0  0  0  0  0  0  0  0  0  0  0  0
    3.2677    3.6445    0.2691 C   0  0  0  0  0  0  0  0  0  0  0  0
    4.1232    2.4177    0.0823 C   0  0  0  0  0  0  0  0  0  0  0  0
    5.2310    2.1948    0.9111 C   0  0  0  0  0  0  0  0  0  0  0  0
    6.0447    1.0742    0.7179 C   0  0  0  0  0  0  0  0  0  0  0  0
    5.7647    0.1570   -0.3010 C   0  0  0  0  0  0  0  0  0  0  0  0
    4.6451    0.3623   -1.1088 C   0  0  0  0  0  0  0  0  0  0  0  0
    3.8285    1.4838   -0.9154 C   0  0  0  0  0  0  0  0  0  0  0  0
    6.6674   -0.9095   -0.4628 N   0  0  0  0  0  0  0  0  0  0  0  0
    6.5865   -1.9688   -1.3505 C   0  0  0  0  0  0  0  0  0  0  0  0
    5.5868   -2.2774   -2.0005 O   0  0  0  0  0  0  0  0  0  0  0  0
    7.8437   -2.8750   -1.3046 C   0  0  1  0  0  0  0  0  0  0  0  0
    7.8453   -3.9396   -2.4184 C   0  0  0  0  0  0  0  0  0  0  0  0
    7.9968   -3.3613   -3.8352 C   0  0  0  0  0  0  0  0  0  0  0  0
    8.9106   -4.1891   -4.7476 C   0  0  0  0  0  0  0  0  0  0  0  0
   10.2167   -4.5059   -4.1998 N   0  0  0  0  0  0  0  0  0  0  0  0
   11.0658   -3.6010   -3.6475 C   0  0  0  0  0  0  0  0  0  0  0  0
   10.8305   -2.4117   -3.4820 O   0  0  0  0  0  0  0  0  0  0  0  0
   12.2098   -4.1672   -3.1928 N   0  0  0  0  0  0  0  0  0  0  0  0
    9.1123   -2.1354   -1.2823 N   0  0  0  0  0  0  0  0  0  0  0  0
    9.6996   -1.6697   -0.1353 C   0  0  0  0  0  0  0  0  0  0  0  0
    9.0979   -1.6521    0.9413 O   0  0  0  0  0  0  0  0  0  0  0  0
   11.1272   -1.1120   -0.3032 C   0  0  1  0  0  0  0  0  0  0  0  0
   11.1293    0.3538   -0.7860 C   0  0  0  0  0  0  0  0  0  0  0  0
   12.5558    0.8216   -1.0889 C   0  0  0  0  0  0  0  0  0  0  0  0
   10.4733    1.3180    0.2078 C   0  0  0  0  0  0  0  0  0  0  0  0
   11.8155   -1.2869    0.9713 N   0  0  0  0  0  0  0  0  0  0  0  0
   12.9615   -2.0373    1.0778 C   0  0  0  0  0  0  0  0  0  0  0  0
   13.5409   -2.5172    0.1084 O   0  0  0  0  0  0  0  0  0  0  0  0
   13.4139   -2.2370    2.5131 C   0  0  0  0  0  0  0  0  0  0  0  0
   14.9039   -2.5624    2.6270 C   0  0  0  0  0  0  0  0  0  0  0  0
   15.8391   -1.4143    2.2241 C   0  0  0  0  0  0  0  0  0  0  0  0
   15.7265   -0.1967    3.1437 C   0  0  0  0  0  0  0  0  0  0  0  0
   16.7764    0.8795    2.8409 C   0  0  0  0  0  0  0  0  0  0  0  0
   16.6324    1.4539    1.5177 N   0  0  0  0  0  0  0  0  0  0  0  0
   17.4936    1.2498    0.4894 C   0  0  0  0  0  0  0  0  0  0  0  0
   18.5113    0.5839    0.4585 O   0  0  0  0  0  0  0  0  0  0  0  0
   16.9843    2.0180   -0.6521 C   0  0  0  0  0  0  0  0  0  0  0  0
   15.8693    2.6355   -0.2640 C   0  0  0  0  0  0  0  0  0  0  0  0
   15.6288    2.2832    1.1387 C   0  0  0  0  0  0  0  0  0  0  0  0
   14.6833    2.6915    1.7874 O   0  0  0  0  0  0  0  0  0  0  0  0
   -7.0550    3.9683    0.4015 H   0  0  0  0  0  0  0  0  0  0  0  0
   -6.0094    4.1952    1.8015 H   0  0  0  0  0  0  0  0  0  0  0  0
   -5.3080    4.1826    0.1741 H   0  0  0  0  0  0  0  0  0  0  0  0
   -6.7416    1.8112    1.4667 H   0  0  0  0  0  0  0  0  0  0  0  0
   -5.0006    2.0469    1.5770 H   0  0  0  0  0  0  0  0  0  0  0  0
   -4.7174    1.7881   -0.8326 H   0  0  0  0  0  0  0  0  0  0  0  0
   -6.7116    2.9485   -1.6331 H   0  0  0  0  0  0  0  0  0  0  0  0
   -6.6684    1.3724   -2.3709 H   0  0  0  0  0  0  0  0  0  0  0  0
   -7.7512    1.6637   -1.0042 H   0  0  0  0  0  0  0  0  0  0  0  0
   -6.5527   -0.2886    0.4371 H   0  0  0  0  0  0  0  0  0  0  0  0
   -5.0853   -1.9341   -1.1232 H   0  0  0  0  0  0  0  0  0  0  0  0
   -7.2114   -1.8342   -2.7077 H   0  0  0  0  0  0  0  0  0  0  0  0
   -7.8133   -0.6232   -1.6089 H   0  0  0  0  0  0  0  0  0  0  0  0
   -9.4109   -4.0399    0.9944 H   0  0  0  0  0  0  0  0  0  0  0  0
   -8.8205   -4.8985   -0.4577 H   0  0  0  0  0  0  0  0  0  0  0  0
  -11.4805   -4.8101   -0.1253 H   0  0  0  0  0  0  0  0  0  0  0  0
  -10.8303   -4.3505   -1.7102 H   0  0  0  0  0  0  0  0  0  0  0  0
  -12.0714   -2.3982   -1.1968 H   0  0  0  0  0  0  0  0  0  0  0  0
  -11.7152   -2.5396    0.5344 H   0  0  0  0  0  0  0  0  0  0  0  0
  -10.0052   -1.3754   -1.6827 H   0  0  0  0  0  0  0  0  0  0  0  0
   -8.8984   -0.1995    0.2455 H   0  0  0  0  0  0  0  0  0  0  0  0
  -10.6217    1.2511    1.0784 H   0  0  0  0  0  0  0  0  0  0  0  0
  -11.0752    0.6267   -1.8648 H   0  0  0  0  0  0  0  0  0  0  0  0
   -9.8972    1.7332   -1.1467 H   0  0  0  0  0  0  0  0  0  0  0  0
  -11.6164    2.0752   -1.0081 H   0  0  0  0  0  0  0  0  0  0  0  0
  -13.0585    0.1797   -1.1765 H   0  0  0  0  0  0  0  0  0  0  0  0
  -14.5648   -1.3007    0.8653 H   0  0  0  0  0  0  0  0  0  0  0  0
  -14.6191   -2.1787   -1.3997 H   0  0  0  0  0  0  0  0  0  0  0  0
  -16.2344   -1.6161   -0.9540 H   0  0  0  0  0  0  0  0  0  0  0  0
  -15.2172   -0.6568   -2.0477 H   0  0  0  0  0  0  0  0  0  0  0  0
  -15.0280    1.0546    1.4658 H   0  0  0  0  0  0  0  0  0  0  0  0
  -17.5068    1.0293   -1.2813 H   0  0  0  0  0  0  0  0  0  0  0  0
  -17.7113    2.8544   -2.9312 H   0  0  0  0  0  0  0  0  0  0  0  0
  -15.9759    4.6241   -3.0551 H   0  0  0  0  0  0  0  0  0  0  0  0
  -14.0347    4.5714   -1.5127 H   0  0  0  0  0  0  0  0  0  0  0  0
  -13.8351    2.7701    0.1674 H   0  0  0  0  0  0  0  0  0  0  0  0
  -16.6559   -0.2416    1.8487 H   0  0  0  0  0  0  0  0  0  0  0  0
   -9.1838   -1.0902    3.6234 H   0  0  0  0  0  0  0  0  0  0  0  0
   -8.3623   -0.0239    2.4647 H   0  0  0  0  0  0  0  0  0  0  0  0
  -10.0416    0.3243    3.0066 H   0  0  0  0  0  0  0  0  0  0  0  0
   -3.5171   -1.7275   -2.7696 H   0  0  0  0  0  0  0  0  0  0  0  0
   -4.0231   -0.8342   -4.2247 H   0  0  0  0  0  0  0  0  0  0  0  0
   -5.0108   -2.1945   -3.6487 H   0  0  0  0  0  0  0  0  0  0  0  0
   -5.6249   -1.9370    1.8043 H   0  0  0  0  0  0  0  0  0  0  0  0
   -5.5390   -0.3538    2.6247 H   0  0  0  0  0  0  0  0  0  0  0  0
   -4.1619   -1.4672    2.6613 H   0  0  0  0  0  0  0  0  0  0  0  0
   -2.4527   -0.5347    2.4809 H   0  0  0  0  0  0  0  0  0  0  0  0
   -0.4542   -1.8809    1.8840 H   0  0  0  0  0  0  0  0  0  0  0  0
   -3.0426   -3.1534    0.8552 H   0  0  0  0  0  0  0  0  0  0  0  0
   -2.5054   -3.0765    2.5473 H   0  0  0  0  0  0  0  0  0  0  0  0
   -1.5848   -4.0091    1.3702 H   0  0  0  0  0  0  0  0  0  0  0  0
   -1.5316   -2.1000   -0.9722 H   0  0  0  0  0  0  0  0  0  0  0  0
   -0.0998   -2.8769   -0.2905 H   0  0  0  0  0  0  0  0  0  0  0  0
   -0.1240   -1.1281   -0.4951 H   0  0  0  0  0  0  0  0  0  0  0  0
   -0.7029    0.7264    0.4725 H   0  0  0  0  0  0  0  0  0  0  0  0
   -0.2023    2.8215    0.6495 H   0  0  0  0  0  0  0  0  0  0  0  0
   -1.9180    4.3980    2.6261 H   0  0  0  0  0  0  0  0  0  0  0  0
   -1.8864    4.3007   -0.4388 H   0  0  0  0  0  0  0  0  0  0  0  0
   -3.0438    3.4510    0.5907 H   0  0  0  0  0  0  0  0  0  0  0  0
   -3.0066    5.2159    0.5824 H   0  0  0  0  0  0  0  0  0  0  0  0
    0.1753    5.6656    2.4299 H   0  0  0  0  0  0  0  0  0  0  0  0
    0.1522    5.5082    0.6595 H   0  0  0  0  0  0  0  0  0  0  0  0
   -1.0874    6.4596    1.4931 H   0  0  0  0  0  0  0  0  0  0  0  0
    1.2611    3.1311    4.6061 H   0  0  0  0  0  0  0  0  0  0  0  0
   -0.4316    3.5653    4.3268 H   0  0  0  0  0  0  0  0  0  0  0  0
    0.0928    1.8539    4.2448 H   0  0  0  0  0  0  0  0  0  0  0  0
    3.1092    4.1125   -0.7107 H   0  0  0  0  0  0  0  0  0  0  0  0
    3.7681    4.4082    0.8814 H   0  0  0  0  0  0  0  0  0  0  0  0
    5.4625    2.8872    1.7179 H   0  0  0  0  0  0  0  0  0  0  0  0
    6.9014    0.9349    1.3756 H   0  0  0  0  0  0  0  0  0  0  0  0
    4.3860   -0.3260   -1.9084 H   0  0  0  0  0  0  0  0  0  0  0  0
    2.9645    1.6252   -1.5646 H   0  0  0  0  0  0  0  0  0  0  0  0
    7.4547   -0.9389    0.1832 H   0  0  0  0  0  0  0  0  0  0  0  0
    7.7681   -3.4123   -0.3490 H   0  0  0  0  0  0  0  0  0  0  0  0
    6.9130   -4.5196   -2.3759 H   0  0  0  0  0  0  0  0  0  0  0  0
    8.6509   -4.6507   -2.1978 H   0  0  0  0  0  0  0  0  0  0  0  0
    7.0068   -3.3039   -4.3040 H   0  0  0  0  0  0  0  0  0  0  0  0
    8.3579   -2.3289   -3.8112 H   0  0  0  0  0  0  0  0  0  0  0  0
    9.0696   -3.6565   -5.6920 H   0  0  0  0  0  0  0  0  0  0  0  0
    8.4279   -5.1466   -4.9805 H   0  0  0  0  0  0  0  0  0  0  0  0
   10.5209   -5.4671   -4.2296 H   0  0  0  0  0  0  0  0  0  0  0  0
   12.8866   -3.5106   -2.8118 H   0  0  0  0  0  0  0  0  0  0  0  0
   12.6238   -4.9090   -3.7403 H   0  0  0  0  0  0  0  0  0  0  0  0
    9.6669   -2.1074   -2.1403 H   0  0  0  0  0  0  0  0  0  0  0  0
   11.6275   -1.7329   -1.0562 H   0  0  0  0  0  0  0  0  0  0  0  0
   10.5573    0.4092   -1.7216 H   0  0  0  0  0  0  0  0  0  0  0  0
   12.5619    1.8446   -1.4801 H   0  0  0  0  0  0  0  0  0  0  0  0
   13.1786    0.8078   -0.1890 H   0  0  0  0  0  0  0  0  0  0  0  0
   13.0306    0.1675   -1.8295 H   0  0  0  0  0  0  0  0  0  0  0  0
   10.4637    2.3367   -0.1929 H   0  0  0  0  0  0  0  0  0  0  0  0
    9.4327    1.0424    0.4037 H   0  0  0  0  0  0  0  0  0  0  0  0
   11.0079    1.3425    1.1632 H   0  0  0  0  0  0  0  0  0  0  0  0
   11.2639   -1.1091    1.8056 H   0  0  0  0  0  0  0  0  0  0  0  0
   13.1598   -1.3576    3.1130 H   0  0  0  0  0  0  0  0  0  0  0  0
   12.8329   -3.0768    2.9120 H   0  0  0  0  0  0  0  0  0  0  0  0
   15.1364   -3.4359    2.0056 H   0  0  0  0  0  0  0  0  0  0  0  0
   15.1211   -2.8512    3.6626 H   0  0  0  0  0  0  0  0  0  0  0  0
   15.6386   -1.1208    1.1885 H   0  0  0  0  0  0  0  0  0  0  0  0
   16.8680   -1.7894    2.2473 H   0  0  0  0  0  0  0  0  0  0  0  0
   15.8514   -0.5170    4.1855 H   0  0  0  0  0  0  0  0  0  0  0  0
   14.7268    0.2446    3.0616 H   0  0  0  0  0  0  0  0  0  0  0  0
   16.6629    1.6944    3.5668 H   0  0  0  0  0  0  0  0  0  0  0  0
   17.7857    0.4663    2.9528 H   0  0  0  0  0  0  0  0  0  0  0  0
   17.4693    2.0419   -1.6109 H   0  0  0  0  0  0  0  0  0  0  0  0
   15.2264    3.2845   -0.8304 H   0  0  0  0  0  0  0  0  0  0  0  0
  1  2  1  0
  2  3  1  0
  3  4  1  0
  3  5  1  0
  5  6  1  0
  6  7  1  0
  7  8  1  0
  8  9  2  0
  8 10  1  0
 10 11  1  0
 11 12  1  0
 12 13  1  0
 13 14  1  0
 14 15  1  0
 15 16  1  0
 16 17  1  0
 16 18  1  0
 18 19  2  0
 18 20  1  0
 20 21  1  0
 21 22  1  0
 21 23  1  0
 23 24  1  0
 24 25  2  0
 25 26  1  0
 26 27  2  0
 27 28  1  0
 28 29  2  0
 23 30  1  0
 15 31  1  0
 31 32  1  0
  6 33  1  0
 33 34  1  0
  5 35  1  0
 35 36  1  0
 35 37  1  0
 37 38  2  0
 37 39  1  0
 39 40  1  0
 40 41  1  0
 40 42  1  0
 39 43  1  0
 43 44  1  0
 44 45  2  0
 44 46  1  0
 46 47  1  0
 47 48  1  0
 47 49  1  0
 46 50  1  0
 50 51  1  0
 50 52  1  0
 52 53  2  0
 52 54  1  0
 54 55  1  0
 55 56  1  0
 56 57  1  0
 57 58  2  0
 58 59  1  0
 59 60  2  0
 60 61  1  0
 59 62  1  0
 62 63  1  0
 63 64  2  0
 63 65  1  0
 65 66  1  0
 66 67  1  0
 67 68  1  0
 68 69  1  0
 69 70  1  0
 70 71  2  0
 70 72  1  0
 65 73  1  0
 73 74  1  0
 74 75  2  0
 74 76  1  0
 76 77  1  0
 77 78  1  0
 77 79  1  0
 76 80  1  0
 80 81  1  0
 81 82  2  0
 81 83  1  0
 83 84  1  0
 84 85  1  0
 85 86  1  0
 86 87  1  0
 87 88  1  0
 88 89  1  0
 89 90  2  0
 89 91  1  0
 91 92  2  0
 92 93  1  0
 93 94  2  0
 14 10  1  0
 29 24  1  0
 61 56  2  0
 93 88  1  0
  1 95  1  0
  1 96  1  0
  1 97  1  0
  2 98  1  0
  2 99  1  0
  3100  1  6
  4101  1  0
  4102  1  0
  4103  1  0
  5104  1  1
  6105  1  1
  7106  1  0
  7107  1  0
 11108  1  0
 11109  1  0
 12110  1  0
 12111  1  0
 13112  1  0
 13113  1  0
 14114  1  6
 15115  1  6
 16116  1  1
 17117  1  0
 17118  1  0
 17119  1  0
 20120  1  0
 21121  1  1
 22122  1  0
 22123  1  0
 22124  1  0
 23125  1  1
 25126  1  0
 26127  1  0
 27128  1  0
 28129  1  0
 29130  1  0
 30131  1  0
 32132  1  0
 32133  1  0
 32134  1  0
 34135  1  0
 34136  1  0
 34137  1  0
 36138  1  0
 36139  1  0
 36140  1  0
 39141  1  1
 40142  1  0
 41143  1  0
 41144  1  0
 41145  1  0
 42146  1  0
 42147  1  0
 42148  1  0
 43149  1  0
 46150  1  6
 47151  1  0
 48152  1  0
 48153  1  0
 48154  1  0
 49155  1  0
 49156  1  0
 49157  1  0
 51158  1  0
 51159  1  0
 51160  1  0
 55161  1  0
 55162  1  0
 57163  1  0
 58164  1  0
 60165  1  0
 61166  1  0
 62167  1  0
 65168  1  1
 66169  1  0
 66170  1  0
 67171  1  0
 67172  1  0
 68173  1  0
 68174  1  0
 69175  1  0
 72176  1  0
 72177  1  0
 73178  1  0
 76179  1  6
 77180  1  0
 78181  1  0
 78182  1  0
 78183  1  0
 79184  1  0
 79185  1  0
 79186  1  0
 80187  1  0
 83188  1  0
 83189  1  0
 84190  1  0
 84191  1  0
 85192  1  0
 85193  1  0
 86194  1  0
 86195  1  0
 87196  1  0
 87197  1  0
 91198  1  0
 92199  1  0
M  END
$$$$

     RDKit          3D

199202  0  0  0  0  0  0  0  0999 V2000
   -7.9590   -4.6554   -0.5468 C   0  0  0  0  0  0  0  0  0  0  0  0
   -8.0374   -3.1489   -0.3413 C   0  0  0  0  0  0  0  0  0  0  0  0
   -6.7284   -2.3965   -0.6664 C   0  0  2  0  0  0  0  0  0  0  0  0
   -5.5821   -2.8648    0.2343 C   0  0  0  0  0  0  0  0  0  0  0  0
   -6.9600   -0.8430   -0.7322 C   0  0  1  0  0  0  0  0  0  0  0  0
   -7.6377   -0.1034    0.4825 C   0  0  1  0  0  0  0  0  0  0  0  0
   -9.1784   -0.0463    0.4414 C   0  0  0  0  0  0  0  0  0  0  0  0
   -9.7839    0.3902   -0.8743 C   0  0  0  0  0  0  0  0  0  0  0  0
  -10.1311   -0.4679   -1.6916 O   0  0  0  0  0  0  0  0  0  0  0  0
   -9.8962    1.7326   -1.1626 N   0  0  0  0  0  0  0  0  0  0  0  0
  -10.1729    2.1295   -2.5392 C   0  0  0  0  0  0  0  0  0  0  0  0
   -9.9435    3.6348   -2.5883 C   0  0  0  0  0  0  0  0  0  0  0  0
   -9.0507    3.8878   -1.3749 C   0  0  0  0  0  0  0  0  0  0  0  0
   -9.6012    2.9020   -0.3288 C   0  0  1  0  0  0  0  0  0  0  0  0
  -10.8204    3.5577    0.4165 C   0  0  1  0  0  0  0  0  0  0  0  0
  -11.7179    2.5674    1.1851 C   0  0  1  0  0  0  0  0  0  0  0  0
  -12.6475    3.2468    2.2004 C   0  0  0  0  0  0  0  0  0  0  0  0
  -12.6068    1.7838    0.2289 C   0  0  0  0  0  0  0  0  0  0  0  0
  -13.0093    2.2423   -0.8341 O   0  0  0  0  0  0  0  0  0  0  0  0
  -12.9540    0.5420    0.7184 N   0  0  0  0  0  0  0  0  0  0  0  0
  -13.6333   -0.4688   -0.1083 C   0  0  2  0  0  0  0  0  0  0  0  0
  -15.0827   -0.0816   -0.3937 C   0  0  0  0  0  0  0  0  0  0  0  0
  -13.5459   -1.8283    0.6459 C   0  0  1  0  0  0  0  0  0  0  0  0
  -14.0091   -3.0669   -0.0903 C   0  0  0  0  0  0  0  0  0  0  0  0
  -13.6404   -3.3275   -1.4191 C   0  0  0  0  0  0  0  0  0  0  0  0
  -14.0353   -4.5116   -2.0445 C   0  0  0  0  0  0  0  0  0  0  0  0
  -14.7946   -5.4529   -1.3519 C   0  0  0  0  0  0  0  0  0  0  0  0
  -15.1602   -5.2122   -0.0284 C   0  0  0  0  0  0  0  0  0  0  0  0
  -14.7691   -4.0284    0.5965 C   0  0  0  0  0  0  0  0  0  0  0  0
  -12.1757   -2.0214    1.0561 O   0  0  0  0  0  0  0  0  0  0  0  0
  -10.2443    4.4870    1.3689 O   0  0  0  0  0  0  0  0  0  0  0  0
  -10.7202    5.8227    1.2079 C   0  0  0  0  0  0  0  0  0  0  0  0
   -7.2788   -0.7429    1.7178 O   0  0  0  0  0  0  0  0  0  0  0  0
   -7.1253    0.1613    2.8029 C   0  0  0  0  0  0  0  0  0  0  0  0
   -5.7738   -0.0896   -1.2707 N   0  0  0  0  0  0  0  0  0  0  0  0
   -5.8192    0.1686   -2.7050 C   0  0  0  0  0  0  0  0  0  0  0  0
   -4.7089    0.2665   -0.4411 C   0  0  0  0  0  0  0  0  0  0  0  0
   -4.6043   -0.1435    0.7175 O   0  0  0  0  0  0  0  0  0  0  0  0
   -3.6426    1.2897   -0.9408 C   0  0  1  0  0  0  0  0  0  0  0  0
   -4.0154    2.7469   -0.5538 C   0  0  0  0  0  0  0  0  0  0  0  0
   -5.2082    3.2596   -1.3544 C   0  0  0  0  0  0  0  0  0  0  0  0
   -4.2819    2.9371    0.9443 C   0  0  0  0  0  0  0  0  0  0  0  0
   -2.3438    0.9062   -0.3685 N   0  0  0  0  0  0  0  0  0  0  0  0
   -1.1559    1.3912   -0.8675 C   0  0  0  0  0  0  0  0  0  0  0  0
   -1.1191    2.2605   -1.7332 O   0  0  0  0  0  0  0  0  0  0  0  0
    0.1197    0.9078   -0.1435 C   0  0  1  0  0  0  0  0  0  0  0  0
    0.6959    1.9728    0.8359 C   0  0  0  0  0  0  0  0  0  0  0  0
    1.5690    2.9875    0.0822 C   0  0  0  0  0  0  0  0  0  0  0  0
   -0.3539    2.7386    1.6487 C   0  0  0  0  0  0  0  0  0  0  0  0
   -0.0238   -0.4621    0.4100 N   0  0  0  0  0  0  0  0  0  0  0  0
   -0.2060   -0.6921    1.8369 C   0  0  0  0  0  0  0  0  0  0  0  0
    0.3329   -1.5045   -0.4415 C   0  0  0  0  0  0  0  0  0  0  0  0
    0.4112   -1.3870   -1.6600 O   0  0  0  0  0  0  0  0  0  0  0  0
    0.6647   -2.6391    0.2332 O   0  0  0  0  0  0  0  0  0  0  0  0
    1.3758   -3.6204   -0.5339 C   0  0  0  0  0  0  0  0  0  0  0  0
    2.8375   -3.2444   -0.6083 C   0  0  0  0  0  0  0  0  0  0  0  0
    3.3358   -2.5773   -1.7348 C   0  0  0  0  0  0  0  0  0  0  0  0
    4.6567   -2.1242   -1.7651 C   0  0  0  0  0  0  0  0  0  0  0  0
    5.5131   -2.3431   -0.6811 C   0  0  0  0  0  0  0  0  0  0  0  0
    5.0279   -3.0264    0.4333 C   0  0  0  0  0  0  0  0  0  0  0  0
    3.6973   -3.4676    0.4739 C   0  0  0  0  0  0  0  0  0  0  0  0
    6.8078   -1.7922   -0.7708 N   0  0  0  0  0  0  0  0  0  0  0  0
    7.8600   -1.9536    0.1178 C   0  0  0  0  0  0  0  0  0  0  0  0
    7.9078   -2.8034    1.0058 O   0  0  0  0  0  0  0  0  0  0  0  0
    9.0660   -1.0128   -0.1883 C   0  0  1  0  0  0  0  0  0  0  0  0
    8.6502    0.4685   -0.2952 C   0  0  0  0  0  0  0  0  0  0  0  0
    9.7811    1.4894   -0.4828 C   0  0  0  0  0  0  0  0  0  0  0  0
   10.5780    1.3102   -1.7738 C   0  0  0  0  0  0  0  0  0  0  0  0
   11.5347    0.2291   -1.6863 N   0  0  0  0  0  0  0  0  0  0  0  0
   12.0782   -0.3031   -2.8154 C   0  0  0  0  0  0  0  0  0  0  0  0
   11.7465   -0.0477   -3.9623 O   0  0  0  0  0  0  0  0  0  0  0  0
   13.0473   -1.2136   -2.5403 N   0  0  0  0  0  0  0  0  0  0  0  0
   10.1650   -1.2719    0.7459 N   0  0  0  0  0  0  0  0  0  0  0  0
   10.1460   -0.8339    2.0582 C   0  0  0  0  0  0  0  0  0  0  0  0
    9.2227   -0.1886    2.5449 O   0  0  0  0  0  0  0  0  0  0  0  0
   11.3407   -1.3230    2.9166 C   0  0  1  0  0  0  0  0  0  0  0  0
   10.9395   -2.5817    3.7279 C   0  0  0  0  0  0  0  0  0  0  0  0
   11.8985   -2.7901    4.9076 C   0  0  0  0  0  0  0  0  0  0  0  0
   10.8569   -3.8673    2.8968 C   0  0  0  0  0  0  0  0  0  0  0  0
   12.5684   -1.5211    2.1263 N   0  0  0  0  0  0  0  0  0  0  0  0
   13.2470   -0.4238    1.6441 C   0  0  0  0  0  0  0  0  0  0  0  0
   12.7617    0.7029    1.6148 O   0  0  0  0  0  0  0  0  0  0  0  0
   14.6241   -0.7359    1.0877 C   0  0  0  0  0  0  0  0  0  0  0  0
   15.5640    0.4605    1.2545 C   0  0  0  0  0  0  0  0  0  0  0  0
   16.9886    0.1739    0.7741 C   0  0  0  0  0  0  0  0  0  0  0  0
   17.1625    0.1890   -0.7490 C   0  0  0  0  0  0  0  0  0  0  0  0
   17.0673    1.5797   -1.3936 C   0  0  0  0  0  0  0  0  0  0  0  0
   18.1468    2.4600   -0.9971 N   0  0  0  0  0  0  0  0  0  0  0  0
   19.4156    2.3877   -1.4735 C   0  0  0  0  0  0  0  0  0  0  0  0
   19.8896    1.6081   -2.2758 O   0  0  0  0  0  0  0  0  0  0  0  0
   20.1857    3.4445   -0.8117 C   0  0  0  0  0  0  0  0  0  0  0  0
   19.3680    4.0725    0.0348 C   0  0  0  0  0  0  0  0  0  0  0  0
   18.0460    3.4460   -0.0700 C   0  0  0  0  0  0  0  0  0  0  0  0
   17.0832    3.7825    0.5918 O   0  0  0  0  0  0  0  0  0  0  0  0
   -8.9622   -5.0941   -0.5066 H   0  0  0  0  0  0  0  0  0  0  0  0
   -7.5194   -4.9010   -1.5210 H   0  0  0  0  0  0  0  0  0  0  0  0
   -7.3613   -5.1354    0.2345 H   0  0  0  0  0  0  0  0  0  0  0  0
   -8.3418   -2.9611    0.6950 H   0  0  0  0  0  0  0  0  0  0  0  0
   -8.8377   -2.7699   -0.9863 H   0  0  0  0  0  0  0  0  0  0  0  0
   -6.4382   -2.6968   -1.6857 H   0  0  0  0  0  0  0  0  0  0  0  0
   -5.7410   -2.6073    1.2839 H   0  0  0  0  0  0  0  0  0  0  0  0
   -5.4510   -3.9493    0.1801 H   0  0  0  0  0  0  0  0  0  0  0  0
   -4.6255   -2.4473   -0.0921 H   0  0  0  0  0  0  0  0  0  0  0  0
   -7.6789   -0.7341   -1.5505 H   0  0  0  0  0  0  0  0  0  0  0  0
   -7.2687    0.9295    0.4838 H   0  0  0  0  0  0  0  0  0  0  0  0
   -9.5995   -1.0299    0.6870 H   0  0  0  0  0  0  0  0  0  0  0  0
   -9.5379    0.5964    1.2457 H   0  0  0  0  0  0  0  0  0  0  0  0
  -11.1926    1.8487   -2.8163 H   0  0  0  0  0  0  0  0  0  0  0  0
   -9.4731    1.6075   -3.2028 H   0  0  0  0  0  0  0  0  0  0  0  0
  -10.8949    4.1692   -2.4913 H   0  0  0  0  0  0  0  0  0  0  0  0
   -9.4784    3.9540   -3.5256 H   0  0  0  0  0  0  0  0  0  0  0  0
   -8.0243    3.6185   -1.6388 H   0  0  0  0  0  0  0  0  0  0  0  0
   -9.0458    4.9326   -1.0595 H   0  0  0  0  0  0  0  0  0  0  0  0
   -8.8211    2.6633    0.4029 H   0  0  0  0  0  0  0  0  0  0  0  0
  -11.4411    4.1120   -0.2999 H   0  0  0  0  0  0  0  0  0  0  0  0
  -11.0832    1.8848    1.7577 H   0  0  0  0  0  0  0  0  0  0  0  0
  -13.3139    2.5192    2.6750 H   0  0  0  0  0  0  0  0  0  0  0  0
  -12.0791    3.7322    2.9985 H   0  0  0  0  0  0  0  0  0  0  0  0
  -13.2774    3.9986    1.7187 H   0  0  0  0  0  0  0  0  0  0  0  0
  -12.3006    0.1249    1.3739 H   0  0  0  0  0  0  0  0  0  0  0  0
  -13.0739   -0.5198   -1.0498 H   0  0  0  0  0  0  0  0  0  0  0  0
  -15.5901   -0.8467   -0.9924 H   0  0  0  0  0  0  0  0  0  0  0  0
  -15.1378    0.8542   -0.9534 H   0  0  0  0  0  0  0  0  0  0  0  0
  -15.6462    0.0547    0.5348 H   0  0  0  0  0  0  0  0  0  0  0  0
  -14.1123   -1.7312    1.5824 H   0  0  0  0  0  0  0  0  0  0  0  0
  -13.0281   -2.6230   -1.9794 H   0  0  0  0  0  0  0  0  0  0  0  0
  -13.7441   -4.7063   -3.0753 H   0  0  0  0  0  0  0  0  0  0  0  0
  -15.0944   -6.3784   -1.8382 H   0  0  0  0  0  0  0  0  0  0  0  0
  -15.7425   -5.9500    0.5173 H   0  0  0  0  0  0  0  0  0  0  0  0
  -15.0519   -3.8654    1.6350 H   0  0  0  0  0  0  0  0  0  0  0  0
  -11.8215   -2.7629    0.5223 H   0  0  0  0  0  0  0  0  0  0  0  0
  -11.8047    5.8678    1.3354 H   0  0  0  0  0  0  0  0  0  0  0  0
  -10.4437    6.2139    0.2247 H   0  0  0  0  0  0  0  0  0  0  0  0
  -10.2512    6.4451    1.9744 H   0  0  0  0  0  0  0  0  0  0  0  0
   -6.8815   -0.4155    3.6994 H   0  0  0  0  0  0  0  0  0  0  0  0
   -8.0503    0.7186    2.9891 H   0  0  0  0  0  0  0  0  0  0  0  0
   -6.3043    0.8592    2.6075 H   0  0  0  0  0  0  0  0  0  0  0  0
   -4.8842    0.5401   -3.1182 H   0  0  0  0  0  0  0  0  0  0  0  0
   -6.0590   -0.7654   -3.2291 H   0  0  0  0  0  0  0  0  0  0  0  0
   -6.6130    0.8999   -2.9020 H   0  0  0  0  0  0  0  0  0  0  0  0
   -3.5016    1.2256   -2.0188 H   0  0  0  0  0  0  0  0  0  0  0  0
   -3.1668    3.3958   -0.8029 H   0  0  0  0  0  0  0  0  0  0  0  0
   -5.4041    4.3125   -1.1287 H   0  0  0  0  0  0  0  0  0  0  0  0
   -6.1101    2.6947   -1.1172 H   0  0  0  0  0  0  0  0  0  0  0  0
   -5.0208    3.1805   -2.4288 H   0  0  0  0  0  0  0  0  0  0  0  0
   -5.2013    2.4368    1.2593 H   0  0  0  0  0  0  0  0  0  0  0  0
   -3.4584    2.5486    1.5504 H   0  0  0  0  0  0  0  0  0  0  0  0
   -4.3900    4.0002    1.1829 H   0  0  0  0  0  0  0  0  0  0  0  0
   -2.3316    0.1381    0.2951 H   0  0  0  0  0  0  0  0  0  0  0  0
    0.8553    0.8146   -0.9557 H   0  0  0  0  0  0  0  0  0  0  0  0
    1.3729    1.4685    1.5396 H   0  0  0  0  0  0  0  0  0  0  0  0
    1.9854    3.7229    0.7785 H   0  0  0  0  0  0  0  0  0  0  0  0
    2.4095    2.4836   -0.4062 H   0  0  0  0  0  0  0  0  0  0  0  0
    1.0011    3.5274   -0.6791 H   0  0  0  0  0  0  0  0  0  0  0  0
   -0.8916    3.4600    1.0233 H   0  0  0  0  0  0  0  0  0  0  0  0
   -1.0910    2.0815    2.1080 H   0  0  0  0  0  0  0  0  0  0  0  0
    0.1323    3.2971    2.4527 H   0  0  0  0  0  0  0  0  0  0  0  0
   -0.9548   -0.0083    2.2344 H   0  0  0  0  0  0  0  0  0  0  0  0
    0.7503   -0.5568    2.3470 H   0  0  0  0  0  0  0  0  0  0  0  0
   -0.5620   -1.7091    2.0244 H   0  0  0  0  0  0  0  0  0  0  0  0
    0.9317   -3.7580   -1.5270 H   0  0  0  0  0  0  0  0  0  0  0  0
    1.2691   -4.5810   -0.0178 H   0  0  0  0  0  0  0  0  0  0  0  0
    2.6850   -2.3701   -2.5842 H   0  0  0  0  0  0  0  0  0  0  0  0
    4.9936   -1.5863   -2.6467 H   0  0  0  0  0  0  0  0  0  0  0  0
    5.6462   -3.1972    1.3088 H   0  0  0  0  0  0  0  0  0  0  0  0
    3.3355   -3.9665    1.3692 H   0  0  0  0  0  0  0  0  0  0  0  0
    6.9844   -1.2340   -1.5954 H   0  0  0  0  0  0  0  0  0  0  0  0
    9.4430   -1.3438   -1.1626 H   0  0  0  0  0  0  0  0  0  0  0  0
    8.0680    0.7573    0.5910 H   0  0  0  0  0  0  0  0  0  0  0  0
    7.9540    0.5901   -1.1360 H   0  0  0  0  0  0  0  0  0  0  0  0
   10.4528    1.4858    0.3838 H   0  0  0  0  0  0  0  0  0  0  0  0
    9.3230    2.4868   -0.5061 H   0  0  0  0  0  0  0  0  0  0  0  0
   11.1592    2.2188   -1.9769 H   0  0  0  0  0  0  0  0  0  0  0  0
    9.9103    1.1531   -2.6291 H   0  0  0  0  0  0  0  0  0  0  0  0
   12.1590    0.2773   -0.8908 H   0  0  0  0  0  0  0  0  0  0  0  0
   13.3374   -1.7229   -3.3664 H   0  0  0  0  0  0  0  0  0  0  0  0
   12.8947   -1.7804   -1.7229 H   0  0  0  0  0  0  0  0  0  0  0  0
   10.6760   -2.1279    0.6008 H   0  0  0  0  0  0  0  0  0  0  0  0
   11.5509   -0.4999    3.6130 H   0  0  0  0  0  0  0  0  0  0  0  0
    9.9407   -2.4108    4.1568 H   0  0  0  0  0  0  0  0  0  0  0  0
   11.5664   -3.6268    5.5303 H   0  0  0  0  0  0  0  0  0  0  0  0
   12.9157   -3.0070    4.5674 H   0  0  0  0  0  0  0  0  0  0  0  0
   11.9306   -1.9007    5.5423 H   0  0  0  0  0  0  0  0  0  0  0  0
   11.7956   -4.0833    2.3806 H   0  0  0  0  0  0  0  0  0  0  0  0
   10.6310   -4.7251    3.5390 H   0  0  0  0  0  0  0  0  0  0  0  0
   10.0644   -3.8040    2.1468 H   0  0  0  0  0  0  0  0  0  0  0  0
   13.1098   -2.3611    2.2991 H   0  0  0  0  0  0  0  0  0  0  0  0
   15.0383   -1.6068    1.6063 H   0  0  0  0  0  0  0  0  0  0  0  0
   14.5004   -0.9942    0.0318 H   0  0  0  0  0  0  0  0  0  0  0  0
   15.6077    0.7137    2.3214 H   0  0  0  0  0  0  0  0  0  0  0  0
   15.1542    1.3447    0.7527 H   0  0  0  0  0  0  0  0  0  0  0  0
   17.3009   -0.8078    1.1516 H   0  0  0  0  0  0  0  0  0  0  0  0
   17.6706    0.8984    1.2291 H   0  0  0  0  0  0  0  0  0  0  0  0
   16.4202   -0.4673   -1.2145 H   0  0  0  0  0  0  0  0  0  0  0  0
   18.1447   -0.2405   -0.9818 H   0  0  0  0  0  0  0  0  0  0  0  0
   16.1083    2.0549   -1.1637 H   0  0  0  0  0  0  0  0  0  0  0  0
   17.1261    1.4610   -2.4833 H   0  0  0  0  0  0  0  0  0  0  0  0
   21.2253    3.6299   -1.0021 H   0  0  0  0  0  0  0  0  0  0  0  0
   19.5829    4.8916    0.6979 H   0  0  0  0  0  0  0  0  0  0  0  0
  1  2  1  0
  2  3  1  0
  3  4  1  0
  3  5  1  0
  5  6  1  0
  6  7  1  0
  7  8  1  0
  8  9  2  0
  8 10  1  0
 10 11  1  0
 11 12  1  0
 12 13  1  0
 13 14  1  0
 14 15  1  0
 15 16  1  0
 16 17  1  0
 16 18  1  0
 18 19  2  0
 18 20  1  0
 20 21  1  0
 21 22  1  0
 21 23  1  0
 23 24  1  0
 24 25  2  0
 25 26  1  0
 26 27  2  0
 27 28  1  0
 28 29  2  0
 23 30  1  0
 15 31  1  0
 31 32  1  0
  6 33  1  0
 33 34  1  0
  5 35  1  0
 35 36  1  0
 35 37  1  0
 37 38  2  0
 37 39  1  0
 39 40  1  0
 40 41  1  0
 40 42  1  0
 39 43  1  0
 43 44  1  0
 44 45  2  0
 44 46  1  0
 46 47  1  0
 47 48  1  0
 47 49  1  0
 46 50  1  0
 50 51  1  0
 50 52  1  0
 52 53  2  0
 52 54  1  0
 54 55  1  0
 55 56  1  0
 56 57  1  0
 57 58  2  0
 58 59  1  0
 59 60  2  0
 60 61  1  0
 59 62  1  0
 62 63  1  0
 63 64  2  0
 63 65  1  0
 65 66  1  0
 66 67  1  0
 67 68  1  0
 68 69  1  0
 69 70  1  0
 70 71  2  0
 70 72  1  0
 65 73  1  0
 73 74  1  0
 74 75  2  0
 74 76  1  0
 76 77  1  0
 77 78  1  0
 77 79  1  0
 76 80  1  0
 80 81  1  0
 81 82  2  0
 81 83  1  0
 83 84  1  0
 84 85  1  0
 85 86  1  0
 86 87  1  0
 87 88  1  0
 88 89  1  0
 89 90  2  0
 89 91  1  0
 91 92  2  0
 92 93  1  0
 93 94  2  0
 14 10  1  0
 29 24  1  0
 61 56  2  0
 93 88  1  0
  1 95  1  0
  1 96  1  0
  1 97  1  0
  2 98  1  0
  2 99  1  0
  3100  1  6
  4101  1  0
  4102  1  0
  4103  1  0
  5104  1  6
  6105  1  1
  7106  1  0
  7107  1  0
 11108  1  0
 11109  1  0
 12110  1  0
 12111  1  0
 13112  1  0
 13113  1  0
 14114  1  1
 15115  1  6
 16116  1  1
 17117  1  0
 17118  1  0
 17119  1  0
 20120  1  0
 21121  1  6
 22122  1  0
 22123  1  0
 22124  1  0
 23125  1  1
 25126  1  0
 26127  1  0
 27128  1  0
 28129  1  0
 29130  1  0
 30131  1  0
 32132  1  0
 32133  1  0
 32134  1  0
 34135  1  0
 34136  1  0
 34137  1  0
 36138  1  0
 36139  1  0
 36140  1  0
 39141  1  6
 40142  1  0
 41143  1  0
 41144  1  0
 41145  1  0
 42146  1  0
 42147  1  0
 42148  1  0
 43149  1  0
 46150  1  6
 47151  1  0
 48152  1  0
 48153  1  0
 48154  1  0
 49155  1  0
 49156  1  0
 49157  1  0
 51158  1  0
 51159  1  0
 51160  1  0
 55161  1  0
 55162  1  0
 57163  1  0
 58164  1  0
 60165  1  0
 61166  1  0
 62167  1  0
 65168  1  6
 66169  1  0
 66170  1  0
 67171  1  0
 67172  1  0
 68173  1  0
 68174  1  0
 69175  1  0
 72176  1  0
 72177  1  0
 73178  1  0
 76179  1  1
 77180  1  0
 78181  1  0
 78182  1  0
 78183  1  0
 79184  1  0
 79185  1  0
 79186  1  0
 80187  1  0
 83188  1  0
 83189  1  0
 84190  1  0
 84191  1  0
 85192  1  0
 85193  1  0
 86194  1  0
 86195  1  0
 87196  1  0
 87197  1  0
 91198  1  0
 92199  1  0
M  END
$$$$

     RDKit          3D

199202  0  0  0  0  0  0  0  0999 V2000
   -4.8365    1.0565   -3.6603 C   0  0  0  0  0  0  0  0  0  0  0  0
   -6.1277    0.2585   -3.5620 C   0  0  0  0  0  0  0  0  0  0  0  0
   -6.2901   -0.5591   -2.2536 C   0  0  2  0  0  0  0  0  0  0  0  0
   -7.4829   -1.5087   -2.4478 C   0  0  0  0  0  0  0  0  0  0  0  0
   -6.3798    0.3052   -0.9394 C   0  0  1  0  0  0  0  0  0  0  0  0
   -7.8028    0.9169   -0.6306 C   0  0  1  0  0  0  0  0  0  0  0  0
   -7.7976    1.6962    0.6914 C   0  0  0  0  0  0  0  0  0  0  0  0
   -9.1413    2.2121    1.1907 C   0  0  0  0  0  0  0  0  0  0  0  0
   -9.4289    3.3988    0.9988 O   0  0  0  0  0  0  0  0  0  0  0  0
   -9.9862    1.3901    1.9279 N   0  0  0  0  0  0  0  0  0  0  0  0
  -10.8816    2.0723    2.8657 C   0  0  0  0  0  0  0  0  0  0  0  0
  -10.9152    1.1906    4.1135 C   0  0  0  0  0  0  0  0  0  0  0  0
   -9.7386    0.2352    3.9142 C   0  0  0  0  0  0  0  0  0  0  0  0
   -9.7263    0.0286    2.3919 C   0  0  1  0  0  0  0  0  0  0  0  0
  -10.8016   -1.0460    1.9878 C   0  0  1  0  0  0  0  0  0  0  0  0
  -11.1963   -1.0329    0.4913 C   0  0  1  0  0  0  0  0  0  0  0  0
  -11.7747   -2.3599   -0.0130 C   0  0  0  0  0  0  0  0  0  0  0  0
  -12.1970    0.0705    0.1710 C   0  0  0  0  0  0  0  0  0  0  0  0
  -11.9786    0.9080   -0.7030 O   0  0  0  0  0  0  0  0  0  0  0  0
  -13.3798    0.0442    0.8845 N   0  0  0  0  0  0  0  0  0  0  0  0
  -14.4846    0.9443    0.5151 C   0  0  2  0  0  0  0  0  0  0  0  0
  -15.3129    1.2553    1.7608 C   0  0  0  0  0  0  0  0  0  0  0  0
  -15.3581    0.3272   -0.6244 C   0  0  1  0  0  0  0  0  0  0  0  0
  -16.4230    1.2228   -1.2287 C   0  0  0  0  0  0  0  0  0  0  0  0
  -16.2592    2.6095   -1.3828 C   0  0  0  0  0  0  0  0  0  0  0  0
  -17.2757    3.3914   -1.9401 C   0  0  0  0  0  0  0  0  0  0  0  0
  -18.4611    2.8010   -2.3668 C   0  0  0  0  0  0  0  0  0  0  0  0
  -18.6300    1.4226   -2.2523 C   0  0  0  0  0  0  0  0  0  0  0  0
  -17.6187    0.6425   -1.6898 C   0  0  0  0  0  0  0  0  0  0  0  0
  -14.5408   -0.1553   -1.6941 O   0  0  0  0  0  0  0  0  0  0  0  0
  -10.2160   -2.3295    2.3081 O   0  0  0  0  0  0  0  0  0  0  0  0
  -10.9998   -3.0995    3.2179 C   0  0  0  0  0  0  0  0  0  0  0  0
   -8.0665    1.8223   -1.7159 O   0  0  0  0  0  0  0  0  0  0  0  0
   -9.4358    1.9283   -2.0785 C   0  0  0  0  0  0  0  0  0  0  0  0
   -5.7571   -0.4165    0.2177 N   0  0  0  0  0  0  0  0  0  0  0  0
   -6.4279   -1.6081    0.7209 C   0  0  0  0  0  0  0  0  0  0  0  0
   -4.3986   -0.3141    0.5747 C   0  0  0  0  0  0  0  0  0  0  0  0
   -3.8937   -1.0969    1.3889 O   0  0  0  0  0  0  0  0  0  0  0  0
   -3.5357    0.8432   -0.0049 C   0  0  1  0  0  0  0  0  0  0  0  0
   -3.8753    2.2026    0.6510 C   0  0  0  0  0  0  0  0  0  0  0  0
   -3.2051    3.3558   -0.1033 C   0  0  0  0  0  0  0  0  0  0  0  0
   -3.5205    2.2753    2.1385 C   0  0  0  0  0  0  0  0  0  0  0  0
   -2.1173    0.5229    0.1630 N   0  0  0  0  0  0  0  0  0  0  0  0
   -1.4167   -0.2050   -0.7815 C   0  0  0  0  0  0  0  0  0  0  0  0
   -1.9348   -0.5982   -1.8224 O   0  0  0  0  0  0  0  0  0  0  0  0
    0.0216   -0.5832   -0.3242 C   0  0  1  0  0  0  0  0  0  0  0  0
    0.9621   -1.1354   -1.4302 C   0  0  0  0  0  0  0  0  0  0  0  0
    1.0868   -0.2474   -2.6715 C   0  0  0  0  0  0  0  0  0  0  0  0
    0.5607   -2.5565   -1.8480 C   0  0  0  0  0  0  0  0  0  0  0  0
    0.6599    0.4966    0.4759 N   0  0  0  0  0  0  0  0  0  0  0  0
    0.7207    1.8464   -0.0606 C   0  0  0  0  0  0  0  0  0  0  0  0
    1.5311    0.2218    1.5227 C   0  0  0  0  0  0  0  0  0  0  0  0
    2.1746    1.0860    2.1075 O   0  0  0  0  0  0  0  0  0  0  0  0
    1.6070   -1.1031    1.8068 O   0  0  0  0  0  0  0  0  0  0  0  0
    2.6111   -1.4744    2.7559 C   0  0  0  0  0  0  0  0  0  0  0  0
    3.8986   -1.7765    2.0302 C   0  0  0  0  0  0  0  0  0  0  0  0
    4.9812   -0.8898    2.0911 C   0  0  0  0  0  0  0  0  0  0  0  0
    6.1704   -1.1616    1.4008 C   0  0  0  0  0  0  0  0  0  0  0  0
    6.2919   -2.3193    0.6339 C   0  0  0  0  0  0  0  0  0  0  0  0
    5.2012   -3.1944    0.5544 C   0  0  0  0  0  0  0  0  0  0  0  0
    4.0153   -2.9264    1.2444 C   0  0  0  0  0  0  0  0  0  0  0  0
    7.4468   -2.6698   -0.0943 N   0  0  0  0  0  0  0  0  0  0  0  0
    8.6837   -2.0416   -0.0914 C   0  0  0  0  0  0  0  0  0  0  0  0
    9.0013   -1.0539    0.5723 O   0  0  0  0  0  0  0  0  0  0  0  0
    9.6595   -2.6675   -1.1224 C   0  0  1  0  0  0  0  0  0  0  0  0
    9.4020   -2.1372   -2.5416 C   0  0  0  0  0  0  0  0  0  0  0  0
    9.3117   -0.6174   -2.7296 C   0  0  0  0  0  0  0  0  0  0  0  0
   10.5998    0.1545   -2.4644 C   0  0  0  0  0  0  0  0  0  0  0  0
   10.8464    0.3570   -1.0521 N   0  0  0  0  0  0  0  0  0  0  0  0
   11.9675    1.0165   -0.6470 C   0  0  0  0  0  0  0  0  0  0  0  0
   12.9470    1.2114   -1.3503 O   0  0  0  0  0  0  0  0  0  0  0  0
   11.8836    1.4269    0.6398 N   0  0  0  0  0  0  0  0  0  0  0  0
   11.0566   -2.5172   -0.7264 N   0  0  0  0  0  0  0  0  0  0  0  0
   11.6385   -3.4763    0.0806 C   0  0  0  0  0  0  0  0  0  0  0  0
   11.0227   -4.4866    0.4209 O   0  0  0  0  0  0  0  0  0  0  0  0
   13.1472   -3.3011    0.3803 C   0  0  1  0  0  0  0  0  0  0  0  0
   14.0213   -4.2268   -0.5108 C   0  0  0  0  0  0  0  0  0  0  0  0
   13.8374   -3.9691   -2.0095 C   0  0  0  0  0  0  0  0  0  0  0  0
   13.8022   -5.7108   -0.1993 C   0  0  0  0  0  0  0  0  0  0  0  0
   13.6311   -1.9153    0.2941 N   0  0  0  0  0  0  0  0  0  0  0  0
   14.7522   -1.5515    1.0213 C   0  0  0  0  0  0  0  0  0  0  0  0
   15.2533   -2.2719    1.8765 O   0  0  0  0  0  0  0  0  0  0  0  0
   15.2818   -0.1686    0.6855 C   0  0  0  0  0  0  0  0  0  0  0  0
   16.6967    0.0542    1.2176 C   0  0  0  0  0  0  0  0  0  0  0  0
   17.1671    1.5120    1.2230 C   0  0  0  0  0  0  0  0  0  0  0  0
   17.2861    2.1750   -0.1539 C   0  0  0  0  0  0  0  0  0  0  0  0
   16.0177    2.8742   -0.6613 C   0  0  0  0  0  0  0  0  0  0  0  0
   15.6490    4.0314    0.1326 N   0  0  0  0  0  0  0  0  0  0  0  0
   16.2066    5.2618   -0.0045 C   0  0  0  0  0  0  0  0  0  0  0  0
   17.0845    5.6286   -0.7619 O   0  0  0  0  0  0  0  0  0  0  0  0
   15.5393    6.1438    0.9591 C   0  0  0  0  0  0  0  0  0  0  0  0
   14.6285    5.4186    1.6123 C   0  0  0  0  0  0  0  0  0  0  0  0
   14.6865    4.0481    1.0898 C   0  0  0  0  0  0  0  0  0  0  0  0
   13.9752    3.1427    1.4928 O   0  0  0  0  0  0  0  0  0  0  0  0
   -3.9691    0.4164   -3.4851 H   0  0  0  0  0  0  0  0  0  0  0  0
   -4.8139    1.8877   -2.9521 H   0  0  0  0  0  0  0  0  0  0  0  0
   -4.7383    1.4837   -4.6632 H   0  0  0  0  0  0  0  0  0  0  0  0
   -6.9797    0.9273   -3.7179 H   0  0  0  0  0  0  0  0  0  0  0  0
   -6.1372   -0.4396   -4.4102 H   0  0  0  0  0  0  0  0  0  0  0  0
   -5.3931   -1.1873   -2.1732 H   0  0  0  0  0  0  0  0  0  0  0  0
   -7.2943   -2.1895   -3.2865 H   0  0  0  0  0  0  0  0  0  0  0  0
   -7.6727   -2.1297   -1.5713 H   0  0  0  0  0  0  0  0  0  0  0  0
   -8.4030   -0.9609   -2.6786 H   0  0  0  0  0  0  0  0  0  0  0  0
   -5.7530    1.1779   -1.1202 H   0  0  0  0  0  0  0  0  0  0  0  0
   -8.5497    0.1243   -0.6008 H   0  0  0  0  0  0  0  0  0  0  0  0
   -7.3353    1.1303    1.5052 H   0  0  0  0  0  0  0  0  0  0  0  0
   -7.1739    2.5912    0.5671 H   0  0  0  0  0  0  0  0  0  0  0  0
  -10.5022    3.0667    3.1220 H   0  0  0  0  0  0  0  0  0  0  0  0
  -11.8710    2.1774    2.4108 H   0  0  0  0  0  0  0  0  0  0  0  0
  -11.8610    0.6399    4.1569 H   0  0  0  0  0  0  0  0  0  0  0  0
  -10.8330    1.7684    5.0386 H   0  0  0  0  0  0  0  0  0  0  0  0
   -9.8424   -0.6853    4.4947 H   0  0  0  0  0  0  0  0  0  0  0  0
   -8.8111    0.7288    4.2315 H   0  0  0  0  0  0  0  0  0  0  0  0
   -8.7427   -0.3206    2.0833 H   0  0  0  0  0  0  0  0  0  0  0  0
  -11.7060   -0.9049    2.5909 H   0  0  0  0  0  0  0  0  0  0  0  0
  -10.3002   -0.8481   -0.1052 H   0  0  0  0  0  0  0  0  0  0  0  0
  -12.6388   -2.6820    0.5780 H   0  0  0  0  0  0  0  0  0  0  0  0
  -12.1076   -2.2629   -1.0534 H   0  0  0  0  0  0  0  0  0  0  0  0
  -11.0221   -3.1558    0.0174 H   0  0  0  0  0  0  0  0  0  0  0  0
  -13.6469   -0.8379    1.3030 H   0  0  0  0  0  0  0  0  0  0  0  0
  -14.0230    1.8738    0.1658 H   0  0  0  0  0  0  0  0  0  0  0  0
  -14.6773    1.6670    2.5525 H   0  0  0  0  0  0  0  0  0  0  0  0
  -16.0982    1.9882    1.5517 H   0  0  0  0  0  0  0  0  0  0  0  0
  -15.7873    0.3517    2.1609 H   0  0  0  0  0  0  0  0  0  0  0  0
  -15.8499   -0.5612   -0.2042 H   0  0  0  0  0  0  0  0  0  0  0  0
  -15.3400    3.1072   -1.0830 H   0  0  0  0  0  0  0  0  0  0  0  0
  -17.1428    4.4687   -2.0318 H   0  0  0  0  0  0  0  0  0  0  0  0
  -19.2490    3.4114   -2.8029 H   0  0  0  0  0  0  0  0  0  0  0  0
  -19.5473    0.9555   -2.6019 H   0  0  0  0  0  0  0  0  0  0  0  0
  -17.7624   -0.4355   -1.6199 H   0  0  0  0  0  0  0  0  0  0  0  0
  -14.0252    0.6103   -2.0199 H   0  0  0  0  0  0  0  0  0  0  0  0
  -11.9693   -3.3430    2.7773 H   0  0  0  0  0  0  0  0  0  0  0  0
  -10.4662   -4.0301    3.4244 H   0  0  0  0  0  0  0  0  0  0  0  0
  -11.1446   -2.5630    4.1592 H   0  0  0  0  0  0  0  0  0  0  0  0
   -9.8482    0.9450   -2.3164 H   0  0  0  0  0  0  0  0  0  0  0  0
   -9.5011    2.5509   -2.9750 H   0  0  0  0  0  0  0  0  0  0  0  0
  -10.0171    2.4111   -1.2938 H   0  0  0  0  0  0  0  0  0  0  0  0
   -7.5098   -1.5038    0.6526 H   0  0  0  0  0  0  0  0  0  0  0  0
   -6.1669   -1.7804    1.7689 H   0  0  0  0  0  0  0  0  0  0  0  0
   -6.1009   -2.4723    0.1349 H   0  0  0  0  0  0  0  0  0  0  0  0
   -3.7157    0.8901   -1.0796 H   0  0  0  0  0  0  0  0  0  0  0  0
   -4.9544    2.3632    0.5832 H   0  0  0  0  0  0  0  0  0  0  0  0
   -2.1145    3.3093   -0.0266 H   0  0  0  0  0  0  0  0  0  0  0  0
   -3.5262    4.3202    0.3037 H   0  0  0  0  0  0  0  0  0  0  0  0
   -3.4732    3.3357   -1.1641 H   0  0  0  0  0  0  0  0  0  0  0  0
   -2.4396    2.2262    2.3041 H   0  0  0  0  0  0  0  0  0  0  0  0
   -3.9916    1.4633    2.7001 H   0  0  0  0  0  0  0  0  0  0  0  0
   -3.8732    3.2191    2.5676 H   0  0  0  0  0  0  0  0  0  0  0  0
   -1.7812    0.4223    1.1145 H   0  0  0  0  0  0  0  0  0  0  0  0
   -0.1600   -1.4108    0.3756 H   0  0  0  0  0  0  0  0  0  0  0  0
    1.9703   -1.2175   -1.0006 H   0  0  0  0  0  0  0  0  0  0  0  0
    1.4730    0.7438   -2.4229 H   0  0  0  0  0  0  0  0  0  0  0  0
    0.1335   -0.1236   -3.1899 H   0  0  0  0  0  0  0  0  0  0  0  0
    1.7890   -0.6921   -3.3865 H   0  0  0  0  0  0  0  0  0  0  0  0
    1.3074   -2.9802   -2.5280 H   0  0  0  0  0  0  0  0  0  0  0  0
    0.4979   -3.2166   -0.9762 H   0  0  0  0  0  0  0  0  0  0  0  0
   -0.4040   -2.5768   -2.3609 H   0  0  0  0  0  0  0  0  0  0  0  0
   -0.0315    2.0086   -0.8363 H   0  0  0  0  0  0  0  0  0  0  0  0
    0.5579    2.5636    0.7497 H   0  0  0  0  0  0  0  0  0  0  0  0
    1.7177    2.0180   -0.4775 H   0  0  0  0  0  0  0  0  0  0  0  0
    2.7447   -0.7199    3.5418 H   0  0  0  0  0  0  0  0  0  0  0  0
    2.2640   -2.3808    3.2654 H   0  0  0  0  0  0  0  0  0  0  0  0
    4.9030    0.0297    2.6706 H   0  0  0  0  0  0  0  0  0  0  0  0
    6.9754   -0.4378    1.4777 H   0  0  0  0  0  0  0  0  0  0  0  0
    5.2559   -4.1001   -0.0437 H   0  0  0  0  0  0  0  0  0  0  0  0
    3.1803   -3.6199    1.1617 H   0  0  0  0  0  0  0  0  0  0  0  0
    7.3854   -3.5420   -0.6047 H   0  0  0  0  0  0  0  0  0  0  0  0
    9.4551   -3.7457   -1.1566 H   0  0  0  0  0  0  0  0  0  0  0  0
   10.1695   -2.5352   -3.2189 H   0  0  0  0  0  0  0  0  0  0  0  0
    8.4457   -2.5549   -2.8863 H   0  0  0  0  0  0  0  0  0  0  0  0
    9.0361   -0.4457   -3.7782 H   0  0  0  0  0  0  0  0  0  0  0  0
    8.4901   -0.2079   -2.1316 H   0  0  0  0  0  0  0  0  0  0  0  0
   11.4668   -0.3436   -2.9137 H   0  0  0  0  0  0  0  0  0  0  0  0
   10.5223    1.1505   -2.9186 H   0  0  0  0  0  0  0  0  0  0  0  0
   10.0353    0.5212   -0.4590 H   0  0  0  0  0  0  0  0  0  0  0  0
   11.3463    0.8785    1.2975 H   0  0  0  0  0  0  0  0  0  0  0  0
   12.7119    1.8771    1.0270 H   0  0  0  0  0  0  0  0  0  0  0  0
   11.3680   -1.5616   -0.5736 H   0  0  0  0  0  0  0  0  0  0  0  0
   13.2632   -3.6064    1.4290 H   0  0  0  0  0  0  0  0  0  0  0  0
   15.0746   -4.0177   -0.2794 H   0  0  0  0  0  0  0  0  0  0  0  0
   12.8226   -4.2124   -2.3420 H   0  0  0  0  0  0  0  0  0  0  0  0
   14.0393   -2.9230   -2.2612 H   0  0  0  0  0  0  0  0  0  0  0  0
   14.5315   -4.5866   -2.5920 H   0  0  0  0  0  0  0  0  0  0  0  0
   12.8238   -6.0607   -0.5416 H   0  0  0  0  0  0  0  0  0  0  0  0
   13.8803   -5.9010    0.8755 H   0  0  0  0  0  0  0  0  0  0  0  0
   14.5624   -6.3203   -0.6996 H   0  0  0  0  0  0  0  0  0  0  0  0
   13.4407   -1.3855   -0.5498 H   0  0  0  0  0  0  0  0  0  0  0  0
   15.2754   -0.0452   -0.4024 H   0  0  0  0  0  0  0  0  0  0  0  0
   14.5985    0.5553    1.1365 H   0  0  0  0  0  0  0  0  0  0  0  0
   16.7663   -0.3106    2.2504 H   0  0  0  0  0  0  0  0  0  0  0  0
   17.4000   -0.5564    0.6361 H   0  0  0  0  0  0  0  0  0  0  0  0
   18.1691    1.5174    1.6713 H   0  0  0  0  0  0  0  0  0  0  0  0
   16.5412    2.1035    1.8975 H   0  0  0  0  0  0  0  0  0  0  0  0
   17.6088    1.4323   -0.8929 H   0  0  0  0  0  0  0  0  0  0  0  0
   18.0882    2.9238   -0.1001 H   0  0  0  0  0  0  0  0  0  0  0  0
   15.1757    2.1827   -0.6903 H   0  0  0  0  0  0  0  0  0  0  0  0
   16.2024    3.2209   -1.6853 H   0  0  0  0  0  0  0  0  0  0  0  0
   15.7779    7.1859    1.0737 H   0  0  0  0  0  0  0  0  0  0  0  0
   13.9496    5.7313    2.3859 H   0  0  0  0  0  0  0  0  0  0  0  0
  1  2  1  0
  2  3  1  0
  3  4  1  0
  3  5  1  0
  5  6  1  0
  6  7  1  0
  7  8  1  0
  8  9  2  0
  8 10  1  0
 10 11  1  0
 11 12  1  0
 12 13  1  0
 13 14  1  0
 14 15  1  0
 15 16  1  0
 16 17  1  0
 16 18  1  0
 18 19  2  0
 18 20  1  0
 20 21  1  0
 21 22  1  0
 21 23  1  0
 23 24  1  0
 24 25  2  0
 25 26  1  0
 26 27  2  0
 27 28  1  0
 28 29  2  0
 23 30  1  0
 15 31  1  0
 31 32  1  0
  6 33  1  0
 33 34  1  0
  5 35  1  0
 35 36  1  0
 35 37  1  0
 37 38  2  0
 37 39  1  0
 39 40  1  0
 40 41  1  0
 40 42  1  0
 39 43  1  0
 43 44  1  0
 44 45  2  0
 44 46  1  0
 46 47  1  0
 47 48  1  0
 47 49  1  0
 46 50  1  0
 50 51  1  0
 50 52  1  0
 52 53  2  0
 52 54  1  0
 54 55  1  0
 55 56  1  0
 56 57  1  0
 57 58  2  0
 58 59  1  0
 59 60  2  0
 60 61  1  0
 59 62  1  0
 62 63  1  0
 63 64  2  0
 63 65  1  0
 65 66  1  0
 66 67  1  0
 67 68  1  0
 68 69  1  0
 69 70  1  0
 70 71  2  0
 70 72  1  0
 65 73  1  0
 73 74  1  0
 74 75  2  0
 74 76  1  0
 76 77  1  0
 77 78  1  0
 77 79  1  0
 76 80  1  0
 80 81  1  0
 81 82  2  0
 81 83  1  0
 83 84  1  0
 84 85  1  0
 85 86  1  0
 86 87  1  0
 87 88  1  0
 88 89  1  0
 89 90  2  0
 89 91  1  0
 91 92  2  0
 92 93  1  0
 93 94  2  0
 14 10  1  0
 29 24  1  0
 61 56  2  0
 93 88  1  0
  1 95  1  0
  1 96  1  0
  1 97  1  0
  2 98  1  0
  2 99  1  0
  3100  1  1
  4101  1  0
  4102  1  0
  4103  1  0
  5104  1  6
  6105  1  1
  7106  1  0
  7107  1  0
 11108  1  0
 11109  1  0
 12110  1  0
 12111  1  0
 13112  1  0
 13113  1  0
 14114  1  6
 15115  1  1
 16116  1  6
 17117  1  0
 17118  1  0
 17119  1  0
 20120  1  0
 21121  1  6
 22122  1  0
 22123  1  0
 22124  1  0
 23125  1  1
 25126  1  0
 26127  1  0
 27128  1  0
 28129  1  0
 29130  1  0
 30131  1  0
 32132  1  0
 32133  1  0
 32134  1  0
 34135  1  0
 34136  1  0
 34137  1  0
 36138  1  0
 36139  1  0
 36140  1  0
 39141  1  6
 40142  1  0
 41143  1  0
 41144  1  0
 41145  1  0
 42146  1  0
 42147  1  0
 42148  1  0
 43149  1  0
 46150  1  1
 47151  1  0
 48152  1  0
 48153  1  0
 48154  1  0
 49155  1  0
 49156  1  0
 49157  1  0
 51158  1  0
 51159  1  0
 51160  1  0
 55161  1  0
 55162  1  0
 57163  1  0
 58164  1  0
 60165  1  0
 61166  1  0
 62167  1  0
 65168  1  6
 66169  1  0
 66170  1  0
 67171  1  0
 67172  1  0
 68173  1  0
 68174  1  0
 69175  1  0
 72176  1  0
 72177  1  0
 73178  1  0
 76179  1  1
 77180  1  0
 78181  1  0
 78182  1  0
 78183  1  0
 79184  1  0
 79185  1  0
 79186  1  0
 80187  1  0
 83188  1  0
 83189  1  0
 84190  1  0
 84191  1  0
 85192  1  0
 85193  1  0
 86194  1  0
 86195  1  0
 87196  1  0
 87197  1  0
 91198  1  0
 92199  1  0
M  END
$$$$

     RDKit          3D

199202  0  0  0  0  0  0  0  0999 V2000
   -6.9101   -2.0398   -4.6491 C   0  0  0  0  0  0  0  0  0  0  0  0
   -6.1830   -1.4108   -3.4663 C   0  0  0  0  0  0  0  0  0  0  0  0
   -6.9184   -0.1943   -2.8749 C   0  0  2  0  0  0  0  0  0  0  0  0
   -6.8706    0.9858   -3.8568 C   0  0  0  0  0  0  0  0  0  0  0  0
   -6.4824    0.2139   -1.4071 C   0  0  1  0  0  0  0  0  0  0  0  0
   -6.9234   -0.8351   -0.2882 C   0  0  1  0  0  0  0  0  0  0  0  0
   -8.3913   -1.2354   -0.4933 C   0  0  0  0  0  0  0  0  0  0  0  0
   -9.1787   -1.6121    0.7493 C   0  0  0  0  0  0  0  0  0  0  0  0
   -8.9735   -2.6673    1.3491 O   0  0  0  0  0  0  0  0  0  0  0  0
  -10.2337   -0.7896    1.0858 N   0  0  0  0  0  0  0  0  0  0  0  0
  -10.2911    0.6496    0.8945 C   0  0  0  0  0  0  0  0  0  0  0  0
  -11.2441    1.1227    1.9808 C   0  0  0  0  0  0  0  0  0  0  0  0
  -12.2433   -0.0229    2.0665 C   0  0  0  0  0  0  0  0  0  0  0  0
  -11.3666   -1.2712    1.9070 C   0  0  1  0  0  0  0  0  0  0  0  0
  -12.0875   -2.4806    1.2385 C   0  0  1  0  0  0  0  0  0  0  0  0
  -13.1879   -3.1768    2.0639 C   0  0  1  0  0  0  0  0  0  0  0  0
  -12.6820   -3.5621    3.4595 C   0  0  0  0  0  0  0  0  0  0  0  0
  -14.5657   -2.5128    2.1769 C   0  0  0  0  0  0  0  0  0  0  0  0
  -15.3153   -2.7552    3.1237 O   0  0  0  0  0  0  0  0  0  0  0  0
  -14.9845   -1.7774    1.0993 N   0  0  0  0  0  0  0  0  0  0  0  0
  -16.3998   -1.4843    0.8604 C   0  0  2  0  0  0  0  0  0  0  0  0
  -17.0325   -2.7035    0.1744 C   0  0  0  0  0  0  0  0  0  0  0  0
  -16.6168   -0.2137   -0.0049 C   0  0  1  0  0  0  0  0  0  0  0  0
  -16.3498    1.0830    0.7384 C   0  0  0  0  0  0  0  0  0  0  0  0
  -15.1571    1.8021    0.5837 C   0  0  0  0  0  0  0  0  0  0  0  0
  -14.9416    2.9883    1.2906 C   0  0  0  0  0  0  0  0  0  0  0  0
  -15.9150    3.4655    2.1689 C   0  0  0  0  0  0  0  0  0  0  0  0
  -17.1047    2.7618    2.3332 C   0  0  0  0  0  0  0  0  0  0  0  0
  -17.3228    1.5780    1.6286 C   0  0  0  0  0  0  0  0  0  0  0  0
  -15.8527   -0.2987   -1.2157 O   0  0  0  0  0  0  0  0  0  0  0  0
  -12.5769   -2.0879   -0.0684 O   0  0  0  0  0  0  0  0  0  0  0  0
  -12.4645   -3.1343   -1.0337 C   0  0  0  0  0  0  0  0  0  0  0  0
   -6.0415   -1.9667   -0.3719 O   0  0  0  0  0  0  0  0  0  0  0  0
   -5.9819   -2.7532    0.8133 C   0  0  0  0  0  0  0  0  0  0  0  0
   -5.0551    0.6873   -1.3327 N   0  0  0  0  0  0  0  0  0  0  0  0
   -4.9274    2.1345   -1.4919 C   0  0  0  0  0  0  0  0  0  0  0  0
   -4.2827    0.2798   -0.2350 C   0  0  0  0  0  0  0  0  0  0  0  0
   -4.4967    0.7259    0.8996 O   0  0  0  0  0  0  0  0  0  0  0  0
   -3.0639   -0.6586   -0.5075 C   0  0  1  0  0  0  0  0  0  0  0  0
   -2.9261   -1.4006   -1.8564 C   0  0  0  0  0  0  0  0  0  0  0  0
   -1.9147   -2.5553   -1.7437 C   0  0  0  0  0  0  0  0  0  0  0  0
   -2.5540   -0.5412   -3.0647 C   0  0  0  0  0  0  0  0  0  0  0  0
   -1.7973   -0.1075   -0.0131 N   0  0  0  0  0  0  0  0  0  0  0  0
   -1.1531    0.9947   -0.5321 C   0  0  0  0  0  0  0  0  0  0  0  0
   -1.6684    1.7318   -1.3697 O   0  0  0  0  0  0  0  0  0  0  0  0
    0.3448    1.0943   -0.1235 C   0  0  1  0  0  0  0  0  0  0  0  0
    0.9906    2.4722   -0.4545 C   0  0  0  0  0  0  0  0  0  0  0  0
    2.3623    2.6637    0.2080 C   0  0  0  0  0  0  0  0  0  0  0  0
    1.1906    2.6425   -1.9711 C   0  0  0  0  0  0  0  0  0  0  0  0
    0.5212    0.6661    1.2868 N   0  0  0  0  0  0  0  0  0  0  0  0
   -0.1204    1.4517    2.3325 C   0  0  0  0  0  0  0  0  0  0  0  0
    1.4005   -0.3472    1.6459 C   0  0  0  0  0  0  0  0  0  0  0  0
    1.6842   -0.6293    2.8035 O   0  0  0  0  0  0  0  0  0  0  0  0
    1.8984   -0.9985    0.5661 O   0  0  0  0  0  0  0  0  0  0  0  0
    2.9321   -1.9606    0.8124 C   0  0  0  0  0  0  0  0  0  0  0  0
    4.2557   -1.3170    0.4942 C   0  0  0  0  0  0  0  0  0  0  0  0
    5.0297   -0.7516    1.5131 C   0  0  0  0  0  0  0  0  0  0  0  0
    6.2394   -0.1123    1.2200 C   0  0  0  0  0  0  0  0  0  0  0  0
    6.6920   -0.0203   -0.0959 C   0  0  0  0  0  0  0  0  0  0  0  0
    5.9142   -0.5761   -1.1169 C   0  0  0  0  0  0  0  0  0  0  0  0
    4.7048   -1.2137   -0.8293 C   0  0  0  0  0  0  0  0  0  0  0  0
    7.8945    0.6106   -0.4758 N   0  0  0  0  0  0  0  0  0  0  0  0
    8.8158    1.2398    0.3486 C   0  0  0  0  0  0  0  0  0  0  0  0
    8.7408    1.3601    1.5695 O   0  0  0  0  0  0  0  0  0  0  0  0
   10.0160    1.8305   -0.4229 C   0  0  1  0  0  0  0  0  0  0  0  0
    9.6089    3.0097   -1.3212 C   0  0  0  0  0  0  0  0  0  0  0  0
    9.0871    4.2260   -0.5380 C   0  0  0  0  0  0  0  0  0  0  0  0
    8.7667    5.4146   -1.4423 C   0  0  0  0  0  0  0  0  0  0  0  0
    9.9302    5.9493   -2.1214 N   0  0  0  0  0  0  0  0  0  0  0  0
   10.8326    6.7327   -1.4672 C   0  0  0  0  0  0  0  0  0  0  0  0
   10.7603    7.1071   -0.3086 O   0  0  0  0  0  0  0  0  0  0  0  0
   11.8617    7.1046   -2.2776 N   0  0  0  0  0  0  0  0  0  0  0  0
   11.0412    2.2282    0.5332 N   0  0  0  0  0  0  0  0  0  0  0  0
   12.3625    2.3252    0.1844 C   0  0  0  0  0  0  0  0  0  0  0  0
   12.7383    2.1344   -0.9772 O   0  0  0  0  0  0  0  0  0  0  0  0
   13.3466    2.8179    1.2813 C   0  0  1  0  0  0  0  0  0  0  0  0
   12.8749    2.8647    2.7580 C   0  0  0  0  0  0  0  0  0  0  0  0
   13.8308    3.7160    3.6079 C   0  0  0  0  0  0  0  0  0  0  0  0
   12.6670    1.5115    3.4398 C   0  0  0  0  0  0  0  0  0  0  0  0
   14.6783    2.2498    1.0631 N   0  0  0  0  0  0  0  0  0  0  0  0
   14.9211    0.8922    1.1014 C   0  0  0  0  0  0  0  0  0  0  0  0
   14.0654    0.0510    1.3571 O   0  0  0  0  0  0  0  0  0  0  0  0
   16.3592    0.5457    0.7666 C   0  0  0  0  0  0  0  0  0  0  0  0
   16.6895   -0.9381    0.9353 C   0  0  0  0  0  0  0  0  0  0  0  0
   16.1620   -1.7994   -0.2152 C   0  0  0  0  0  0  0  0  0  0  0  0
   16.5323   -3.2683   -0.0214 C   0  0  0  0  0  0  0  0  0  0  0  0
   16.0095   -4.1329   -1.1690 C   0  0  0  0  0  0  0  0  0  0  0  0
   16.3778   -5.5258   -0.9964 N   0  0  0  0  0  0  0  0  0  0  0  0
   15.6400   -6.4386   -0.3161 C   0  0  0  0  0  0  0  0  0  0  0  0
   14.5614   -6.3045    0.2371 O   0  0  0  0  0  0  0  0  0  0  0  0
   16.4030   -7.6946   -0.3227 C   0  0  0  0  0  0  0  0  0  0  0  0
   17.5595   -7.4641   -0.9449 C   0  0  0  0  0  0  0  0  0  0  0  0
   17.5732   -6.0554   -1.3608 C   0  0  0  0  0  0  0  0  0  0  0  0
   18.5176   -5.5160   -1.9152 O   0  0  0  0  0  0  0  0  0  0  0  0
   -7.9251   -2.3421   -4.3692 H   0  0  0  0  0  0  0  0  0  0  0  0
   -6.3771   -2.9337   -4.9843 H   0  0  0  0  0  0  0  0  0  0  0  0
   -6.9773   -1.3538   -5.4983 H   0  0  0  0  0  0  0  0  0  0  0  0
   -6.0704   -2.1970   -2.7180 H   0  0  0  0  0  0  0  0  0  0  0  0
   -5.1835   -1.1189   -3.7950 H   0  0  0  0  0  0  0  0  0  0  0  0
   -7.9799   -0.4594   -2.8346 H   0  0  0  0  0  0  0  0  0  0  0  0
   -5.8500    1.1974   -4.1908 H   0  0  0  0  0  0  0  0  0  0  0  0
   -7.4814    0.7857   -4.7417 H   0  0  0  0  0  0  0  0  0  0  0  0
   -7.2859    1.8863   -3.3948 H   0  0  0  0  0  0  0  0  0  0  0  0
   -7.0900    1.0957   -1.1605 H   0  0  0  0  0  0  0  0  0  0  0  0
   -6.8081   -0.3500    0.6895 H   0  0  0  0  0  0  0  0  0  0  0  0
   -8.9394   -0.4222   -0.9788 H   0  0  0  0  0  0  0  0  0  0  0  0
   -8.4594   -2.0990   -1.1707 H   0  0  0  0  0  0  0  0  0  0  0  0
   -9.2957    1.0988    0.9789 H   0  0  0  0  0  0  0  0  0  0  0  0
  -10.7018    0.8445   -0.1033 H   0  0  0  0  0  0  0  0  0  0  0  0
  -10.7144    1.2247    2.9354 H   0  0  0  0  0  0  0  0  0  0  0  0
  -11.7130    2.0805    1.7418 H   0  0  0  0  0  0  0  0  0  0  0  0
  -12.9502    0.0689    1.2380 H   0  0  0  0  0  0  0  0  0  0  0  0
  -12.8062   -0.0246    3.0020 H   0  0  0  0  0  0  0  0  0  0  0  0
  -10.9382   -1.5636    2.8722 H   0  0  0  0  0  0  0  0  0  0  0  0
  -11.3189   -3.2445    1.0788 H   0  0  0  0  0  0  0  0  0  0  0  0
  -13.4096   -4.1175    1.5385 H   0  0  0  0  0  0  0  0  0  0  0  0
  -13.3601   -4.2748    3.9418 H   0  0  0  0  0  0  0  0  0  0  0  0
  -11.6926   -4.0299    3.4092 H   0  0  0  0  0  0  0  0  0  0  0  0
  -12.6166   -2.6816    4.1123 H   0  0  0  0  0  0  0  0  0  0  0  0
  -14.3497   -1.6604    0.3131 H   0  0  0  0  0  0  0  0  0  0  0  0
  -16.8954   -1.3571    1.8289 H   0  0  0  0  0  0  0  0  0  0  0  0
  -16.5317   -2.9300   -0.7753 H   0  0  0  0  0  0  0  0  0  0  0  0
  -16.9523   -3.5971    0.8040 H   0  0  0  0  0  0  0  0  0  0  0  0
  -18.0951   -2.5266   -0.0321 H   0  0  0  0  0  0  0  0  0  0  0  0
  -17.6671   -0.1854   -0.3268 H   0  0  0  0  0  0  0  0  0  0  0  0
  -14.3779    1.4394   -0.0846 H   0  0  0  0  0  0  0  0  0  0  0  0
  -14.0110    3.5323    1.1653 H   0  0  0  0  0  0  0  0  0  0  0  0
  -15.7438    4.3840    2.7211 H   0  0  0  0  0  0  0  0  0  0  0  0
  -17.8645    3.1294    3.0205 H   0  0  0  0  0  0  0  0  0  0  0  0
  -18.2570    1.0409    1.7777 H   0  0  0  0  0  0  0  0  0  0  0  0
  -15.9464    0.5612   -1.6598 H   0  0  0  0  0  0  0  0  0  0  0  0
  -12.8608   -2.7641   -1.9853 H   0  0  0  0  0  0  0  0  0  0  0  0
  -13.0511   -4.0069   -0.7339 H   0  0  0  0  0  0  0  0  0  0  0  0
  -11.4143   -3.4139   -1.1782 H   0  0  0  0  0  0  0  0  0  0  0  0
   -5.0468   -3.3225    0.7955 H   0  0  0  0  0  0  0  0  0  0  0  0
   -5.9882   -2.1322    1.7170 H   0  0  0  0  0  0  0  0  0  0  0  0
   -6.7989   -3.4776    0.8267 H   0  0  0  0  0  0  0  0  0  0  0  0
   -3.8904    2.4492   -1.3671 H   0  0  0  0  0  0  0  0  0  0  0  0
   -5.5147    2.6440   -0.7185 H   0  0  0  0  0  0  0  0  0  0  0  0
   -5.2610    2.4525   -2.4774 H   0  0  0  0  0  0  0  0  0  0  0  0
   -3.2628   -1.4604    0.2218 H   0  0  0  0  0  0  0  0  0  0  0  0
   -3.8908   -1.8632   -2.0672 H   0  0  0  0  0  0  0  0  0  0  0  0
   -2.1752   -3.2305   -0.9229 H   0  0  0  0  0  0  0  0  0  0  0  0
   -0.8995   -2.1861   -1.5677 H   0  0  0  0  0  0  0  0  0  0  0  0
   -1.8938   -3.1478   -2.6653 H   0  0  0  0  0  0  0  0  0  0  0  0
   -1.5154   -0.2024   -3.0305 H   0  0  0  0  0  0  0  0  0  0  0  0
   -3.1997    0.3306   -3.1645 H   0  0  0  0  0  0  0  0  0  0  0  0
   -2.6601   -1.1276   -3.9868 H   0  0  0  0  0  0  0  0  0  0  0  0
   -1.2863   -0.6472    0.6771 H   0  0  0  0  0  0  0  0  0  0  0  0
    0.8301    0.3599   -0.7774 H   0  0  0  0  0  0  0  0  0  0  0  0
    0.3245    3.2697   -0.1050 H   0  0  0  0  0  0  0  0  0  0  0  0
    2.2907    2.6911    1.2976 H   0  0  0  0  0  0  0  0  0  0  0  0
    2.8089    3.6143   -0.1042 H   0  0  0  0  0  0  0  0  0  0  0  0
    3.0534    1.8612   -0.0687 H   0  0  0  0  0  0  0  0  0  0  0  0
    1.6354    3.6212   -2.1937 H   0  0  0  0  0  0  0  0  0  0  0  0
    0.2553    2.5803   -2.5304 H   0  0  0  0  0  0  0  0  0  0  0  0
    1.8673    1.8756   -2.3656 H   0  0  0  0  0  0  0  0  0  0  0  0
   -1.2051    1.4489    2.1893 H   0  0  0  0  0  0  0  0  0  0  0  0
    0.2458    2.4790    2.2940 H   0  0  0  0  0  0  0  0  0  0  0  0
    0.0921    1.0477    3.3283 H   0  0  0  0  0  0  0  0  0  0  0  0
    2.9127   -2.3708    1.8294 H   0  0  0  0  0  0  0  0  0  0  0  0
    2.7596   -2.8081    0.1399 H   0  0  0  0  0  0  0  0  0  0  0  0
    4.6948   -0.7948    2.5484 H   0  0  0  0  0  0  0  0  0  0  0  0
    6.8012    0.3039    2.0518 H   0  0  0  0  0  0  0  0  0  0  0  0
    6.2290   -0.5138   -2.1568 H   0  0  0  0  0  0  0  0  0  0  0  0
    4.1071   -1.6236   -1.6411 H   0  0  0  0  0  0  0  0  0  0  0  0
    8.1145    0.5746   -1.4632 H   0  0  0  0  0  0  0  0  0  0  0  0
   10.4308    1.0269   -1.0460 H   0  0  0  0  0  0  0  0  0  0  0  0
   10.4782    3.3076   -1.9159 H   0  0  0  0  0  0  0  0  0  0  0  0
    8.8395    2.6939   -2.0372 H   0  0  0  0  0  0  0  0  0  0  0  0
    9.8248    4.5325    0.2153 H   0  0  0  0  0  0  0  0  0  0  0  0
    8.1758    3.9461    0.0031 H   0  0  0  0  0  0  0  0  0  0  0  0
    8.3246    6.2174   -0.8415 H   0  0  0  0  0  0  0  0  0  0  0  0
    8.0423    5.1287   -2.2115 H   0  0  0  0  0  0  0  0  0  0  0  0
   10.3176    5.4071   -2.8808 H   0  0  0  0  0  0  0  0  0  0  0  0
   11.6094    7.3146   -3.2342 H   0  0  0  0  0  0  0  0  0  0  0  0
   12.4505    7.8051   -1.8426 H   0  0  0  0  0  0  0  0  0  0  0  0
   10.7752    2.1336    1.5095 H   0  0  0  0  0  0  0  0  0  0  0  0
   13.4793    3.8754    1.0039 H   0  0  0  0  0  0  0  0  0  0  0  0
   11.9051    3.3826    2.7816 H   0  0  0  0  0  0  0  0  0  0  0  0
   13.9400    4.7180    3.1824 H   0  0  0  0  0  0  0  0  0  0  0  0
   14.8243    3.2627    3.6710 H   0  0  0  0  0  0  0  0  0  0  0  0
   13.4475    3.8290    4.6269 H   0  0  0  0  0  0  0  0  0  0  0  0
   12.1591    1.6477    4.4009 H   0  0  0  0  0  0  0  0  0  0  0  0
   13.6187    1.0153    3.6528 H   0  0  0  0  0  0  0  0  0  0  0  0
   12.0476    0.8425    2.8362 H   0  0  0  0  0  0  0  0  0  0  0  0
   15.2873    2.7843    0.4612 H   0  0  0  0  0  0  0  0  0  0  0  0
   16.9980    1.1214    1.4462 H   0  0  0  0  0  0  0  0  0  0  0  0
   16.5786    0.8734   -0.2560 H   0  0  0  0  0  0  0  0  0  0  0  0
   16.2954   -1.3082    1.8894 H   0  0  0  0  0  0  0  0  0  0  0  0
   17.7812   -1.0442    0.9801 H   0  0  0  0  0  0  0  0  0  0  0  0
   15.0717   -1.7059   -0.2893 H   0  0  0  0  0  0  0  0  0  0  0  0
   16.5777   -1.4369   -1.1636 H   0  0  0  0  0  0  0  0  0  0  0  0
   17.6229   -3.3663    0.0470 H   0  0  0  0  0  0  0  0  0  0  0  0
   16.1251   -3.6286    0.9298 H   0  0  0  0  0  0  0  0  0  0  0  0
   16.4233   -3.7814   -2.1211 H   0  0  0  0  0  0  0  0  0  0  0  0
   14.9151   -4.0659   -1.2193 H   0  0  0  0  0  0  0  0  0  0  0  0
   16.0495   -8.6012    0.1340 H   0  0  0  0  0  0  0  0  0  0  0  0
   18.3770   -8.1418   -1.1260 H   0  0  0  0  0  0  0  0  0  0  0  0
  1  2  1  0
  2  3  1  0
  3  4  1  0
  3  5  1  0
  5  6  1  0
  6  7  1  0
  7  8  1  0
  8  9  2  0
  8 10  1  0
 10 11  1  0
 11 12  1  0
 12 13  1  0
 13 14  1  0
 14 15  1  0
 15 16  1  0
 16 17  1  0
 16 18  1  0
 18 19  2  0
 18 20  1  0
 20 21  1  0
 21 22  1  0
 21 23  1  0
 23 24  1  0
 24 25  2  0
 25 26  1  0
 26 27  2  0
 27 28  1  0
 28 29  2  0
 23 30  1  0
 15 31  1  0
 31 32  1  0
  6 33  1  0
 33 34  1  0
  5 35  1  0
 35 36  1  0
 35 37  1  0
 37 38  2  0
 37 39  1  0
 39 40  1  0
 40 41  1  0
 40 42  1  0
 39 43  1  0
 43 44  1  0
 44 45  2  0
 44 46  1  0
 46 47  1  0
 47 48  1  0
 47 49  1  0
 46 50  1  0
 50 51  1  0
 50 52  1  0
 52 53  2  0
 52 54  1  0
 54 55  1  0
 55 56  1  0
 56 57  1  0
 57 58  2  0
 58 59  1  0
 59 60  2  0
 60 61  1  0
 59 62  1  0
 62 63  1  0
 63 64  2  0
 63 65  1  0
 65 66  1  0
 66 67  1  0
 67 68  1  0
 68 69  1  0
 69 70  1  0
 70 71  2  0
 70 72  1  0
 65 73  1  0
 73 74  1  0
 74 75  2  0
 74 76  1  0
 76 77  1  0
 77 78  1  0
 77 79  1  0
 76 80  1  0
 80 81  1  0
 81 82  2  0
 81 83  1  0
 83 84  1  0
 84 85  1  0
 85 86  1  0
 86 87  1  0
 87 88  1  0
 88 89  1  0
 89 90  2  0
 89 91  1  0
 91 92  2  0
 92 93  1  0
 93 94  2  0
 14 10  1  0
 29 24  1  0
 61 56  2  0
 93 88  1  0
  1 95  1  0
  1 96  1  0
  1 97  1  0
  2 98  1  0
  2 99  1  0
  3100  1  1
  4101  1  0
  4102  1  0
  4103  1  0
  5104  1  1
  6105  1  1
  7106  1  0
  7107  1  0
 11108  1  0
 11109  1  0
 12110  1  0
 12111  1  0
 13112  1  0
 13113  1  0
 14114  1  1
 15115  1  6
 16116  1  6
 17117  1  0
 17118  1  0
 17119  1  0
 20120  1  0
 21121  1  1
 22122  1  0
 22123  1  0
 22124  1  0
 23125  1  6
 25126  1  0
 26127  1  0
 27128  1  0
 28129  1  0
 29130  1  0
 30131  1  0
 32132  1  0
 32133  1  0
 32134  1  0
 34135  1  0
 34136  1  0
 34137  1  0
 36138  1  0
 36139  1  0
 36140  1  0
 39141  1  1
 40142  1  0
 41143  1  0
 41144  1  0
 41145  1  0
 42146  1  0
 42147  1  0
 42148  1  0
 43149  1  0
 46150  1  6
 47151  1  0
 48152  1  0
 48153  1  0
 48154  1  0
 49155  1  0
 49156  1  0
 49157  1  0
 51158  1  0
 51159  1  0
 51160  1  0
 55161  1  0
 55162  1  0
 57163  1  0
 58164  1  0
 60165  1  0
 61166  1  0
 62167  1  0
 65168  1  6
 66169  1  0
 66170  1  0
 67171  1  0
 67172  1  0
 68173  1  0
 68174  1  0
 69175  1  0
 72176  1  0
 72177  1  0
 73178  1  0
 76179  1  6
 77180  1  0
 78181  1  0
 78182  1  0
 78183  1  0
 79184  1  0
 79185  1  0
 79186  1  0
 80187  1  0
 83188  1  0
 83189  1  0
 84190  1  0
 84191  1  0
 85192  1  0
 85193  1  0
 86194  1  0
 86195  1  0
 87196  1  0
 87197  1  0
 91198  1  0
 92199  1  0
M  END
$$$$

     RDKit          3D

199202  0  0  0  0  0  0  0  0999 V2000
    6.4085    4.2790    3.4878 C   0  0  0  0  0  0  0  0  0  0  0  0
    5.5305    4.3783    2.2494 C   0  0  0  0  0  0  0  0  0  0  0  0
    6.2535    4.1502    0.9098 C   0  0  2  0  0  0  0  0  0  0  0  0
    5.4076    4.8000   -0.2077 C   0  0  0  0  0  0  0  0  0  0  0  0
    6.6225    2.6684    0.5139 C   0  0  1  0  0  0  0  0  0  0  0  0
    7.8685    2.0968    1.2771 C   0  0  1  0  0  0  0  0  0  0  0  0
    8.4291    0.7639    0.7340 C   0  0  0  0  0  0  0  0  0  0  0  0
    8.3033    0.5526   -0.7667 C   0  0  0  0  0  0  0  0  0  0  0  0
    7.3174   -0.0501   -1.1987 O   0  0  0  0  0  0  0  0  0  0  0  0
    9.2874    1.0377   -1.6221 N   0  0  0  0  0  0  0  0  0  0  0  0
    9.0542    0.9015   -3.0542 C   0  0  0  0  0  0  0  0  0  0  0  0
   10.1602   -0.0230   -3.5160 C   0  0  0  0  0  0  0  0  0  0  0  0
   11.3439    0.4836   -2.7087 C   0  0  0  0  0  0  0  0  0  0  0  0
   10.7363    0.9032   -1.3480 C   0  0  1  0  0  0  0  0  0  0  0  0
   11.4303    2.1831   -0.7951 C   0  0  1  0  0  0  0  0  0  0  0  0
   12.9386    1.9571   -0.5430 C   0  0  1  0  0  0  0  0  0  0  0  0
   13.6157    3.2065    0.0373 C   0  0  0  0  0  0  0  0  0  0  0  0
   13.1443    0.8160    0.4360 C   0  0  0  0  0  0  0  0  0  0  0  0
   12.5901    0.7792    1.5287 O   0  0  0  0  0  0  0  0  0  0  0  0
   14.0087   -0.1568   -0.0131 N   0  0  0  0  0  0  0  0  0  0  0  0
   14.2269   -1.4027    0.7373 C   0  0  2  0  0  0  0  0  0  0  0  0
   15.2795   -1.1812    1.8263 C   0  0  0  0  0  0  0  0  0  0  0  0
   14.6582   -2.5355   -0.2407 C   0  0  1  0  0  0  0  0  0  0  0  0
   14.7354   -3.9303    0.3461 C   0  0  0  0  0  0  0  0  0  0  0  0
   13.7736   -4.4278    1.2429 C   0  0  0  0  0  0  0  0  0  0  0  0
   13.8604   -5.7350    1.7275 C   0  0  0  0  0  0  0  0  0  0  0  0
   14.9007   -6.5663    1.3242 C   0  0  0  0  0  0  0  0  0  0  0  0
   15.8555   -6.0950    0.4262 C   0  0  0  0  0  0  0  0  0  0  0  0
   15.7711   -4.7883   -0.0606 C   0  0  0  0  0  0  0  0  0  0  0  0
   13.7266   -2.5549   -1.3455 O   0  0  0  0  0  0  0  0  0  0  0  0
   11.3257    3.2584   -1.7504 O   0  0  0  0  0  0  0  0  0  0  0  0
   10.2752    4.1652   -1.4429 C   0  0  0  0  0  0  0  0  0  0  0  0
    8.9185    3.0916    1.2510 O   0  0  0  0  0  0  0  0  0  0  0  0
    9.7437    3.0608    2.4169 C   0  0  0  0  0  0  0  0  0  0  0  0
    5.4182    1.7832    0.4214 N   0  0  0  0  0  0  0  0  0  0  0  0
    4.8532    1.5968   -0.9038 C   0  0  0  0  0  0  0  0  0  0  0  0
    4.9107    1.1279    1.5329 C   0  0  0  0  0  0  0  0  0  0  0  0
    5.5302    1.1484    2.6052 O   0  0  0  0  0  0  0  0  0  0  0  0
    3.4615    0.5032    1.5621 C   0  0  1  0  0  0  0  0  0  0  0  0
    2.5674    1.4200    2.4607 C   0  0  0  0  0  0  0  0  0  0  0  0
    1.4041    0.6361    3.0677 C   0  0  0  0  0  0  0  0  0  0  0  0
    2.0281    2.6531    1.7248 C   0  0  0  0  0  0  0  0  0  0  0  0
    2.7082    0.1098    0.3552 N   0  0  0  0  0  0  0  0  0  0  0  0
    2.4161   -1.2135    0.0816 C   0  0  0  0  0  0  0  0  0  0  0  0
    2.9621   -2.1216    0.7087 O   0  0  0  0  0  0  0  0  0  0  0  0
    1.2453   -1.5010   -0.9291 C   0  0  1  0  0  0  0  0  0  0  0  0
    1.0325   -0.6088   -2.1826 C   0  0  0  0  0  0  0  0  0  0  0  0
    0.3976    0.7561   -1.8708 C   0  0  0  0  0  0  0  0  0  0  0  0
    2.2698   -0.4326   -3.0595 C   0  0  0  0  0  0  0  0  0  0  0  0
    1.2339   -2.9341   -1.3246 N   0  0  0  0  0  0  0  0  0  0  0  0
    2.4499   -3.5558   -1.8216 C   0  0  0  0  0  0  0  0  0  0  0  0
    0.0767   -3.6932   -1.4050 C   0  0  0  0  0  0  0  0  0  0  0  0
    0.0663   -4.8658   -1.7556 O   0  0  0  0  0  0  0  0  0  0  0  0
   -1.0520   -3.0037   -1.0868 O   0  0  0  0  0  0  0  0  0  0  0  0
   -2.2343   -3.8074   -1.1980 C   0  0  0  0  0  0  0  0  0  0  0  0
   -3.4985   -3.0740   -0.7974 C   0  0  0  0  0  0  0  0  0  0  0  0
   -4.7342   -3.6294   -1.1508 C   0  0  0  0  0  0  0  0  0  0  0  0
   -5.9319   -3.0112   -0.7777 C   0  0  0  0  0  0  0  0  0  0  0  0
   -5.9217   -1.8489    0.0035 C   0  0  0  0  0  0  0  0  0  0  0  0
   -4.6896   -1.3052    0.3749 C   0  0  0  0  0  0  0  0  0  0  0  0
   -3.4888   -1.9159   -0.0177 C   0  0  0  0  0  0  0  0  0  0  0  0
   -7.1734   -1.2726    0.3120 N   0  0  0  0  0  0  0  0  0  0  0  0
   -7.4213   -0.1717    1.1168 C   0  0  0  0  0  0  0  0  0  0  0  0
   -6.5923    0.3702    1.8497 O   0  0  0  0  0  0  0  0  0  0  0  0
   -8.8272    0.4643    0.9498 C   0  0  1  0  0  0  0  0  0  0  0  0
   -8.7723    1.6895    0.0251 C   0  0  0  0  0  0  0  0  0  0  0  0
   -8.0211    1.5551   -1.3063 C   0  0  0  0  0  0  0  0  0  0  0  0
   -8.5212    0.4959   -2.2804 C   0  0  0  0  0  0  0  0  0  0  0  0
   -9.9447    0.5609   -2.4975 N   0  0  0  0  0  0  0  0  0  0  0  0
  -10.5591   -0.3905   -3.2565 C   0  0  0  0  0  0  0  0  0  0  0  0
  -10.0543   -1.4340   -3.6478 O   0  0  0  0  0  0  0  0  0  0  0  0
  -11.8433   -0.0592   -3.5500 N   0  0  0  0  0  0  0  0  0  0  0  0
   -9.9294   -0.4447    0.6189 N   0  0  0  0  0  0  0  0  0  0  0  0
  -11.2103   -0.2242    1.0984 C   0  0  0  0  0  0  0  0  0  0  0  0
  -11.5193    0.7756    1.7578 O   0  0  0  0  0  0  0  0  0  0  0  0
  -12.2039   -1.3813    0.8523 C   0  0  1  0  0  0  0  0  0  0  0  0
  -12.1040   -2.4804    1.9376 C   0  0  0  0  0  0  0  0  0  0  0  0
  -10.8019   -3.2810    1.8506 C   0  0  0  0  0  0  0  0  0  0  0  0
  -12.2856   -1.9521    3.3661 C   0  0  0  0  0  0  0  0  0  0  0  0
  -13.5747   -0.8732    0.7860 N   0  0  0  0  0  0  0  0  0  0  0  0
  -14.1249   -0.4537   -0.4021 C   0  0  0  0  0  0  0  0  0  0  0  0
  -13.5017   -0.4257   -1.4575 O   0  0  0  0  0  0  0  0  0  0  0  0
  -15.5792   -0.0283   -0.2830 C   0  0  0  0  0  0  0  0  0  0  0  0
  -16.3560   -0.4126   -1.5403 C   0  0  0  0  0  0  0  0  0  0  0  0
  -17.8182    0.0366   -1.5637 C   0  0  0  0  0  0  0  0  0  0  0  0
  -18.8107   -0.9052   -0.8627 C   0  0  0  0  0  0  0  0  0  0  0  0
  -18.9401   -0.7557    0.6548 C   0  0  0  0  0  0  0  0  0  0  0  0
  -19.3471    0.5739    1.0648 N   0  0  0  0  0  0  0  0  0  0  0  0
  -20.6009    1.0708    0.9351 C   0  0  0  0  0  0  0  0  0  0  0  0
  -21.5932    0.5440    0.4700 O   0  0  0  0  0  0  0  0  0  0  0  0
  -20.5846    2.4324    1.4830 C   0  0  0  0  0  0  0  0  0  0  0  0
  -19.3549    2.6711    1.9362 C   0  0  0  0  0  0  0  0  0  0  0  0
  -18.5438    1.4740    1.6859 C   0  0  0  0  0  0  0  0  0  0  0  0
  -17.3774    1.3626    2.0025 O   0  0  0  0  0  0  0  0  0  0  0  0
    5.8801    4.7093    4.3484 H   0  0  0  0  0  0  0  0  0  0  0  0
    6.6369    3.2426    3.7476 H   0  0  0  0  0  0  0  0  0  0  0  0
    7.3423    4.8392    3.3633 H   0  0  0  0  0  0  0  0  0  0  0  0
    5.1119    5.3934    2.2512 H   0  0  0  0  0  0  0  0  0  0  0  0
    4.6771    3.7099    2.3628 H   0  0  0  0  0  0  0  0  0  0  0  0
    7.1796    4.7351    0.9334 H   0  0  0  0  0  0  0  0  0  0  0  0
    4.4046    4.3724   -0.2542 H   0  0  0  0  0  0  0  0  0  0  0  0
    5.8883    4.6752   -1.1831 H   0  0  0  0  0  0  0  0  0  0  0  0
    5.3066    5.8761   -0.0326 H   0  0  0  0  0  0  0  0  0  0  0  0
    6.9945    2.7772   -0.5128 H   0  0  0  0  0  0  0  0  0  0  0  0
    7.6199    1.9362    2.3260 H   0  0  0  0  0  0  0  0  0  0  0  0
    9.4677    0.6149    1.0370 H   0  0  0  0  0  0  0  0  0  0  0  0
    7.8680   -0.0583    1.1979 H   0  0  0  0  0  0  0  0  0  0  0  0
    8.0638    0.5195   -3.3091 H   0  0  0  0  0  0  0  0  0  0  0  0
    9.1663    1.8967   -3.5013 H   0  0  0  0  0  0  0  0  0  0  0  0
   10.3345    0.0331   -4.5964 H   0  0  0  0  0  0  0  0  0  0  0  0
    9.9379   -1.0644   -3.2509 H   0  0  0  0  0  0  0  0  0  0  0  0
   11.7943    1.3339   -3.2379 H   0  0  0  0  0  0  0  0  0  0  0  0
   12.1221   -0.2764   -2.5958 H   0  0  0  0  0  0  0  0  0  0  0  0
   10.8512    0.0714   -0.6423 H   0  0  0  0  0  0  0  0  0  0  0  0
   10.9641    2.4743    0.1448 H   0  0  0  0  0  0  0  0  0  0  0  0
   13.4446    1.7367   -1.4909 H   0  0  0  0  0  0  0  0  0  0  0  0
   14.6641    3.0010    0.2770 H   0  0  0  0  0  0  0  0  0  0  0  0
   13.1192    3.5305    0.9592 H   0  0  0  0  0  0  0  0  0  0  0  0
   13.5881    4.0376   -0.6766 H   0  0  0  0  0  0  0  0  0  0  0  0
   14.1626   -0.2242   -1.0150 H   0  0  0  0  0  0  0  0  0  0  0  0
   13.2679   -1.6510    1.2078 H   0  0  0  0  0  0  0  0  0  0  0  0
   15.4055   -2.0780    2.4429 H   0  0  0  0  0  0  0  0  0  0  0  0
   14.9866   -0.3601    2.4931 H   0  0  0  0  0  0  0  0  0  0  0  0
   16.2487   -0.9196    1.3853 H   0  0  0  0  0  0  0  0  0  0  0  0
   15.6328   -2.2648   -0.6714 H   0  0  0  0  0  0  0  0  0  0  0  0
   12.9392   -3.8117    1.5678 H   0  0  0  0  0  0  0  0  0  0  0  0
   13.1160   -6.1080    2.4336 H   0  0  0  0  0  0  0  0  0  0  0  0
   14.9668   -7.5850    1.7038 H   0  0  0  0  0  0  0  0  0  0  0  0
   16.6643   -6.7453    0.1090 H   0  0  0  0  0  0  0  0  0  0  0  0
   16.5236   -4.4466   -0.7690 H   0  0  0  0  0  0  0  0  0  0  0  0
   13.2485   -3.4019   -1.2987 H   0  0  0  0  0  0  0  0  0  0  0  0
    9.3043    3.6670   -1.4476 H   0  0  0  0  0  0  0  0  0  0  0  0
   10.2589    4.9444   -2.2081 H   0  0  0  0  0  0  0  0  0  0  0  0
   10.4521    4.6430   -0.4744 H   0  0  0  0  0  0  0  0  0  0  0  0
   10.2041    2.0793    2.5478 H   0  0  0  0  0  0  0  0  0  0  0  0
    9.1644    3.3202    3.3039 H   0  0  0  0  0  0  0  0  0  0  0  0
   10.5336    3.8057    2.2923 H   0  0  0  0  0  0  0  0  0  0  0  0
    5.4964    2.0185   -1.6834 H   0  0  0  0  0  0  0  0  0  0  0  0
    4.7429    0.5285   -1.0970 H   0  0  0  0  0  0  0  0  0  0  0  0
    3.8848    2.0989   -0.9498 H   0  0  0  0  0  0  0  0  0  0  0  0
    3.6353   -0.4184    2.1338 H   0  0  0  0  0  0  0  0  0  0  0  0
    3.1754    1.7822    3.3029 H   0  0  0  0  0  0  0  0  0  0  0  0
    0.8338    1.2652    3.7596 H   0  0  0  0  0  0  0  0  0  0  0  0
    1.7661   -0.2302    3.6268 H   0  0  0  0  0  0  0  0  0  0  0  0
    0.7151    0.2825    2.2940 H   0  0  0  0  0  0  0  0  0  0  0  0
    2.8173    3.1757    1.1805 H   0  0  0  0  0  0  0  0  0  0  0  0
    1.2435    2.3852    1.0125 H   0  0  0  0  0  0  0  0  0  0  0  0
    1.5918    3.3579    2.4423 H   0  0  0  0  0  0  0  0  0  0  0  0
    2.2748    0.8420   -0.1755 H   0  0  0  0  0  0  0  0  0  0  0  0
    0.3564   -1.3584   -0.2969 H   0  0  0  0  0  0  0  0  0  0  0  0
    0.2835   -1.1207   -2.8056 H   0  0  0  0  0  0  0  0  0  0  0  0
   -0.1143    1.1364   -2.7689 H   0  0  0  0  0  0  0  0  0  0  0  0
   -0.3546    0.6860   -1.0777 H   0  0  0  0  0  0  0  0  0  0  0  0
    1.1375    1.5148   -1.5989 H   0  0  0  0  0  0  0  0  0  0  0  0
    3.1154   -0.0551   -2.4828 H   0  0  0  0  0  0  0  0  0  0  0  0
    2.5633   -1.3805   -3.5207 H   0  0  0  0  0  0  0  0  0  0  0  0
    2.0707    0.2747   -3.8740 H   0  0  0  0  0  0  0  0  0  0  0  0
    2.5934   -4.5251   -1.3315 H   0  0  0  0  0  0  0  0  0  0  0  0
    3.3349   -2.9358   -1.6509 H   0  0  0  0  0  0  0  0  0  0  0  0
    2.3455   -3.7279   -2.9002 H   0  0  0  0  0  0  0  0  0  0  0  0
   -2.3392   -4.1309   -2.2439 H   0  0  0  0  0  0  0  0  0  0  0  0
   -2.1405   -4.6855   -0.5422 H   0  0  0  0  0  0  0  0  0  0  0  0
   -4.7758   -4.5352   -1.7567 H   0  0  0  0  0  0  0  0  0  0  0  0
   -6.8680   -3.4605   -1.1062 H   0  0  0  0  0  0  0  0  0  0  0  0
   -4.6256   -0.3931    0.9603 H   0  0  0  0  0  0  0  0  0  0  0  0
   -2.5526   -1.4539    0.2743 H   0  0  0  0  0  0  0  0  0  0  0  0
   -7.9685   -1.7253   -0.1110 H   0  0  0  0  0  0  0  0  0  0  0  0
   -9.0708    0.8380    1.9557 H   0  0  0  0  0  0  0  0  0  0  0  0
   -9.7852    2.0584   -0.1716 H   0  0  0  0  0  0  0  0  0  0  0  0
   -8.2703    2.4932    0.5834 H   0  0  0  0  0  0  0  0  0  0  0  0
   -6.9554    1.3855   -1.1189 H   0  0  0  0  0  0  0  0  0  0  0  0
   -8.0694    2.5340   -1.8024 H   0  0  0  0  0  0  0  0  0  0  0  0
   -8.2555   -0.5095   -1.9560 H   0  0  0  0  0  0  0  0  0  0  0  0
   -8.0362    0.6471   -3.2548 H   0  0  0  0  0  0  0  0  0  0  0  0
  -10.3549    1.4775   -2.6342 H   0  0  0  0  0  0  0  0  0  0  0  0
  -12.3126   -0.8017   -4.0551 H   0  0  0  0  0  0  0  0  0  0  0  0
  -12.3962    0.1699   -2.7201 H   0  0  0  0  0  0  0  0  0  0  0  0
   -9.8017   -1.2033   -0.0523 H   0  0  0  0  0  0  0  0  0  0  0  0
  -11.9735   -1.8266   -0.1223 H   0  0  0  0  0  0  0  0  0  0  0  0
  -12.9245   -3.1884    1.7555 H   0  0  0  0  0  0  0  0  0  0  0  0
  -10.8419   -4.1506    2.5184 H   0  0  0  0  0  0  0  0  0  0  0  0
  -10.6312   -3.6521    0.8343 H   0  0  0  0  0  0  0  0  0  0  0  0
   -9.9327   -2.6849    2.1488 H   0  0  0  0  0  0  0  0  0  0  0  0
  -11.3956   -1.4170    3.7223 H   0  0  0  0  0  0  0  0  0  0  0  0
  -12.4647   -2.7909    4.0550 H   0  0  0  0  0  0  0  0  0  0  0  0
  -13.1465   -1.2813    3.4508 H   0  0  0  0  0  0  0  0  0  0  0  0
  -13.9289   -0.4090    1.6167 H   0  0  0  0  0  0  0  0  0  0  0  0
  -15.5976    1.0567   -0.1286 H   0  0  0  0  0  0  0  0  0  0  0  0
  -16.0143   -0.5101    0.5942 H   0  0  0  0  0  0  0  0  0  0  0  0
  -15.8563    0.0447   -2.4053 H   0  0  0  0  0  0  0  0  0  0  0  0
  -16.2906   -1.4983   -1.7004 H   0  0  0  0  0  0  0  0  0  0  0  0
  -18.1139    0.0548   -2.6224 H   0  0  0  0  0  0  0  0  0  0  0  0
  -17.9193    1.0698   -1.2083 H   0  0  0  0  0  0  0  0  0  0  0  0
  -18.5609   -1.9489   -1.0980 H   0  0  0  0  0  0  0  0  0  0  0  0
  -19.7992   -0.7291   -1.3095 H   0  0  0  0  0  0  0  0  0  0  0  0
  -19.7134   -1.4566    0.9969 H   0  0  0  0  0  0  0  0  0  0  0  0
  -18.0083   -1.0327    1.1550 H   0  0  0  0  0  0  0  0  0  0  0  0
  -21.4414    3.0797    1.5010 H   0  0  0  0  0  0  0  0  0  0  0  0
  -18.9731    3.5602    2.4066 H   0  0  0  0  0  0  0  0  0  0  0  0
  1  2  1  0
  2  3  1  0
  3  4  1  0
  3  5  1  0
  5  6  1  0
  6  7  1  0
  7  8  1  0
  8  9  2  0
  8 10  1  0
 10 11  1  0
 11 12  1  0
 12 13  1  0
 13 14  1  0
 14 15  1  0
 15 16  1  0
 16 17  1  0
 16 18  1  0
 18 19  2  0
 18 20  1  0
 20 21  1  0
 21 22  1  0
 21 23  1  0
 23 24  1  0
 24 25  2  0
 25 26  1  0
 26 27  2  0
 27 28  1  0
 28 29  2  0
 23 30  1  0
 15 31  1  0
 31 32  1  0
  6 33  1  0
 33 34  1  0
  5 35  1  0
 35 36  1  0
 35 37  1  0
 37 38  2  0
 37 39  1  0
 39 40  1  0
 40 41  1  0
 40 42  1  0
 39 43  1  0
 43 44  1  0
 44 45  2  0
 44 46  1  0
 46 47  1  0
 47 48  1  0
 47 49  1  0
 46 50  1  0
 50 51  1  0
 50 52  1  0
 52 53  2  0
 52 54  1  0
 54 55  1  0
 55 56  1  0
 56 57  1  0
 57 58  2  0
 58 59  1  0
 59 60  2  0
 60 61  1  0
 59 62  1  0
 62 63  1  0
 63 64  2  0
 63 65  1  0
 65 66  1  0
 66 67  1  0
 67 68  1  0
 68 69  1  0
 69 70  1  0
 70 71  2  0
 70 72  1  0
 65 73  1  0
 73 74  1  0
 74 75  2  0
 74 76  1  0
 76 77  1  0
 77 78  1  0
 77 79  1  0
 76 80  1  0
 80 81  1  0
 81 82  2  0
 81 83  1  0
 83 84  1  0
 84 85  1  0
 85 86  1  0
 86 87  1  0
 87 88  1  0
 88 89  1  0
 89 90  2  0
 89 91  1  0
 91 92  2  0
 92 93  1  0
 93 94  2  0
 14 10  1  0
 29 24  1  0
 61 56  2  0
 93 88  1  0
  1 95  1  0
  1 96  1  0
  1 97  1  0
  2 98  1  0
  2 99  1  0
  3100  1  1
  4101  1  0
  4102  1  0
  4103  1  0
  5104  1  6
  6105  1  1
  7106  1  0
  7107  1  0
 11108  1  0
 11109  1  0
 12110  1  0
 12111  1  0
 13112  1  0
 13113  1  0
 14114  1  1
 15115  1  1
 16116  1  6
 17117  1  0
 17118  1  0
 17119  1  0
 20120  1  0
 21121  1  1
 22122  1  0
 22123  1  0
 22124  1  0
 23125  1  6
 25126  1  0
 26127  1  0
 27128  1  0
 28129  1  0
 29130  1  0
 30131  1  0
 32132  1  0
 32133  1  0
 32134  1  0
 34135  1  0
 34136  1  0
 34137  1  0
 36138  1  0
 36139  1  0
 36140  1  0
 39141  1  1
 40142  1  0
 41143  1  0
 41144  1  0
 41145  1  0
 42146  1  0
 42147  1  0
 42148  1  0
 43149  1  0
 46150  1  1
 47151  1  0
 48152  1  0
 48153  1  0
 48154  1  0
 49155  1  0
 49156  1  0
 49157  1  0
 51158  1  0
 51159  1  0
 51160  1  0
 55161  1  0
 55162  1  0
 57163  1  0
 58164  1  0
 60165  1  0
 61166  1  0
 62167  1  0
 65168  1  1
 66169  1  0
 66170  1  0
 67171  1  0
 67172  1  0
 68173  1  0
 68174  1  0
 69175  1  0
 72176  1  0
 72177  1  0
 73178  1  0
 76179  1  6
 77180  1  0
 78181  1  0
 78182  1  0
 78183  1  0
 79184  1  0
 79185  1  0
 79186  1  0
 80187  1  0
 83188  1  0
 83189  1  0
 84190  1  0
 84191  1  0
 85192  1  0
 85193  1  0
 86194  1  0
 86195  1  0
 87196  1  0
 87197  1  0
 91198  1  0
 92199  1  0
M  END
$$$$

     RDKit          3D

199202  0  0  0  0  0  0  0  0999 V2000
    5.2240   -3.3211   -2.8856 C   0  0  0  0  0  0  0  0  0  0  0  0
    5.2769   -3.0140   -1.3932 C   0  0  0  0  0  0  0  0  0  0  0  0
    6.6669   -2.5294   -0.8942 C   0  0  2  0  0  0  0  0  0  0  0  0
    7.7102   -3.6254   -1.1820 C   0  0  0  0  0  0  0  0  0  0  0  0
    6.6444   -2.1668    0.6312 C   0  0  1  0  0  0  0  0  0  0  0  0
    7.9845   -1.5873    1.2314 C   0  0  1  0  0  0  0  0  0  0  0  0
    8.3436   -0.1342    0.8861 C   0  0  0  0  0  0  0  0  0  0  0  0
    9.0467    0.0093   -0.4498 C   0  0  0  0  0  0  0  0  0  0  0  0
    9.4334   -0.9738   -1.0812 O   0  0  0  0  0  0  0  0  0  0  0  0
    9.3203    1.3088   -0.8608 N   0  0  0  0  0  0  0  0  0  0  0  0
    8.3564    2.3915   -0.7150 C   0  0  0  0  0  0  0  0  0  0  0  0
    8.3529    3.0671   -2.0773 C   0  0  0  0  0  0  0  0  0  0  0  0
    9.8049    2.9468   -2.5141 C   0  0  0  0  0  0  0  0  0  0  0  0
   10.2115    1.5553   -2.0046 C   0  0  1  0  0  0  0  0  0  0  0  0
   11.7452    1.4092   -1.7159 C   0  0  1  0  0  0  0  0  0  0  0  0
   12.3434    2.4048   -0.6843 C   0  0  1  0  0  0  0  0  0  0  0  0
   11.9331    2.1709    0.7708 C   0  0  0  0  0  0  0  0  0  0  0  0
   13.8685    2.3869   -0.7952 C   0  0  0  0  0  0  0  0  0  0  0  0
   14.5068    3.3721   -1.1656 O   0  0  0  0  0  0  0  0  0  0  0  0
   14.4630    1.1934   -0.4793 N   0  0  0  0  0  0  0  0  0  0  0  0
   15.9069    0.9857   -0.4493 C   0  0  2  0  0  0  0  0  0  0  0  0
   16.2136   -0.4946   -0.6819 C   0  0  0  0  0  0  0  0  0  0  0  0
   16.5851    1.5799    0.8201 C   0  0  1  0  0  0  0  0  0  0  0  0
   15.9846    1.1342    2.1443 C   0  0  0  0  0  0  0  0  0  0  0  0
   15.1035    1.9847    2.8313 C   0  0  0  0  0  0  0  0  0  0  0  0
   14.5324    1.5939    4.0435 C   0  0  0  0  0  0  0  0  0  0  0  0
   14.8361    0.3480    4.5876 C   0  0  0  0  0  0  0  0  0  0  0  0
   15.7141   -0.5042    3.9225 C   0  0  0  0  0  0  0  0  0  0  0  0
   16.2857   -0.1153    2.7091 C   0  0  0  0  0  0  0  0  0  0  0  0
   17.9930    1.3058    0.8161 O   0  0  0  0  0  0  0  0  0  0  0  0
   12.0771    0.0774   -1.2725 O   0  0  0  0  0  0  0  0  0  0  0  0
   12.1978   -0.8649   -2.3318 C   0  0  0  0  0  0  0  0  0  0  0  0
    7.9047   -1.6388    2.6811 O   0  0  0  0  0  0  0  0  0  0  0  0
    8.4960   -2.8153    3.2218 C   0  0  0  0  0  0  0  0  0  0  0  0
    5.4415   -1.3883    1.0726 N   0  0  0  0  0  0  0  0  0  0  0  0
    4.7706   -1.8784    2.2729 C   0  0  0  0  0  0  0  0  0  0  0  0
    5.0316   -0.2316    0.4006 C   0  0  0  0  0  0  0  0  0  0  0  0
    5.6555    0.1858   -0.5797 O   0  0  0  0  0  0  0  0  0  0  0  0
    3.7106    0.4689    0.8402 C   0  0  1  0  0  0  0  0  0  0  0  0
    3.6406    1.9374    0.3350 C   0  0  0  0  0  0  0  0  0  0  0  0
    3.2630    2.0833   -1.1447 C   0  0  0  0  0  0  0  0  0  0  0  0
    2.6610    2.7533    1.1865 C   0  0  0  0  0  0  0  0  0  0  0  0
    2.5739   -0.3156    0.3631 N   0  0  0  0  0  0  0  0  0  0  0  0
    1.6317   -0.8898    1.1930 C   0  0  0  0  0  0  0  0  0  0  0  0
    1.7402   -0.8773    2.4165 O   0  0  0  0  0  0  0  0  0  0  0  0
    0.5690   -1.7261    0.4234 C   0  0  1  0  0  0  0  0  0  0  0  0
   -0.6336   -2.2666    1.2461 C   0  0  0  0  0  0  0  0  0  0  0  0
   -0.1929   -3.3902    2.1906 C   0  0  0  0  0  0  0  0  0  0  0  0
   -1.4296   -1.2240    2.0323 C   0  0  0  0  0  0  0  0  0  0  0  0
    0.1898   -1.1016   -0.8677 N   0  0  0  0  0  0  0  0  0  0  0  0
    0.0726   -1.9812   -2.0219 C   0  0  0  0  0  0  0  0  0  0  0  0
   -0.4411    0.1376   -0.8487 C   0  0  0  0  0  0  0  0  0  0  0  0
   -0.4848    0.8611    0.1401 O   0  0  0  0  0  0  0  0  0  0  0  0
   -1.0197    0.4521   -2.0354 O   0  0  0  0  0  0  0  0  0  0  0  0
   -1.7704    1.6714   -2.0689 C   0  0  0  0  0  0  0  0  0  0  0  0
   -3.2432    1.3507   -2.0055 C   0  0  0  0  0  0  0  0  0  0  0  0
   -3.9997    1.2244   -3.1730 C   0  0  0  0  0  0  0  0  0  0  0  0
   -5.3577    0.9024   -3.1039 C   0  0  0  0  0  0  0  0  0  0  0  0
   -5.9854    0.6852   -1.8703 C   0  0  0  0  0  0  0  0  0  0  0  0
   -5.2332    0.8099   -0.7036 C   0  0  0  0  0  0  0  0  0  0  0  0
   -3.8731    1.1419   -0.7709 C   0  0  0  0  0  0  0  0  0  0  0  0
   -7.3463    0.3196   -1.9031 N   0  0  0  0  0  0  0  0  0  0  0  0
   -8.1870    0.0263   -0.8386 C   0  0  0  0  0  0  0  0  0  0  0  0
   -7.9022    0.0956    0.3550 O   0  0  0  0  0  0  0  0  0  0  0  0
   -9.5539   -0.5317   -1.3176 C   0  0  1  0  0  0  0  0  0  0  0  0
   -9.4369   -1.9802   -1.8251 C   0  0  0  0  0  0  0  0  0  0  0  0
   -9.5066   -3.1227   -0.7988 C   0  0  0  0  0  0  0  0  0  0  0  0
   -8.3602   -3.1791    0.2075 C   0  0  0  0  0  0  0  0  0  0  0  0
   -8.5676   -2.3301    1.3582 N   0  0  0  0  0  0  0  0  0  0  0  0
   -9.3457   -2.6993    2.4081 C   0  0  0  0  0  0  0  0  0  0  0  0
   -9.9799   -3.7373    2.4900 O   0  0  0  0  0  0  0  0  0  0  0  0
   -9.3804   -1.7598    3.3832 N   0  0  0  0  0  0  0  0  0  0  0  0
  -10.6036   -0.3789   -0.3236 N   0  0  0  0  0  0  0  0  0  0  0  0
  -11.3624    0.7718   -0.2690 C   0  0  0  0  0  0  0  0  0  0  0  0
  -11.2091    1.6973   -1.0669 O   0  0  0  0  0  0  0  0  0  0  0  0
  -12.4280    0.8055    0.8543 C   0  0  1  0  0  0  0  0  0  0  0  0
  -11.7878    0.9101    2.2555 C   0  0  0  0  0  0  0  0  0  0  0  0
  -11.0549    2.2324    2.4948 C   0  0  0  0  0  0  0  0  0  0  0  0
  -12.8351    0.6835    3.3501 C   0  0  0  0  0  0  0  0  0  0  0  0
  -13.3480    1.9098    0.5789 N   0  0  0  0  0  0  0  0  0  0  0  0
  -14.4038    1.7275   -0.2983 C   0  0  0  0  0  0  0  0  0  0  0  0
  -14.7507    0.6297   -0.7175 O   0  0  0  0  0  0  0  0  0  0  0  0
  -15.0865    3.0383   -0.6605 C   0  0  0  0  0  0  0  0  0  0  0  0
  -16.1819    2.8886   -1.7141 C   0  0  0  0  0  0  0  0  0  0  0  0
  -17.4611    2.2660   -1.1486 C   0  0  0  0  0  0  0  0  0  0  0  0
  -18.5080    2.0604   -2.2479 C   0  0  0  0  0  0  0  0  0  0  0  0
  -19.8012    1.4224   -1.7302 C   0  0  0  0  0  0  0  0  0  0  0  0
  -19.5985    0.0754   -1.2390 N   0  0  0  0  0  0  0  0  0  0  0  0
  -19.4765   -0.2642    0.0684 C   0  0  0  0  0  0  0  0  0  0  0  0
  -19.5561    0.4420    1.0568 O   0  0  0  0  0  0  0  0  0  0  0  0
  -19.2182   -1.7078    0.1160 C   0  0  0  0  0  0  0  0  0  0  0  0
  -19.2010   -2.1592   -1.1388 C   0  0  0  0  0  0  0  0  0  0  0  0
  -19.4446   -1.0177   -2.0274 C   0  0  0  0  0  0  0  0  0  0  0  0
  -19.4938   -1.1013   -3.2405 O   0  0  0  0  0  0  0  0  0  0  0  0
    5.7915   -4.2223   -3.1309 H   0  0  0  0  0  0  0  0  0  0  0  0
    5.6163   -2.4858   -3.4744 H   0  0  0  0  0  0  0  0  0  0  0  0
    4.1877   -3.4986   -3.1933 H   0  0  0  0  0  0  0  0  0  0  0  0
    4.9679   -3.9048   -0.8309 H   0  0  0  0  0  0  0  0  0  0  0  0
    4.5184   -2.2508   -1.2040 H   0  0  0  0  0  0  0  0  0  0  0  0
    6.9441   -1.6455   -1.4769 H   0  0  0  0  0  0  0  0  0  0  0  0
    7.8323   -3.7819   -2.2595 H   0  0  0  0  0  0  0  0  0  0  0  0
    7.4110   -4.5812   -0.7351 H   0  0  0  0  0  0  0  0  0  0  0  0
    8.7029   -3.3788   -0.8013 H   0  0  0  0  0  0  0  0  0  0  0  0
    6.5100   -3.1421    1.1198 H   0  0  0  0  0  0  0  0  0  0  0  0
    8.8201   -2.2277    0.9362 H   0  0  0  0  0  0  0  0  0  0  0  0
    9.0656    0.2262    1.6344 H   0  0  0  0  0  0  0  0  0  0  0  0
    7.4837    0.5237    0.9962 H   0  0  0  0  0  0  0  0  0  0  0  0
    8.7254    3.0653    0.0615 H   0  0  0  0  0  0  0  0  0  0  0  0
    7.3588    2.0454   -0.4461 H   0  0  0  0  0  0  0  0  0  0  0  0
    8.0011    4.1023   -2.0326 H   0  0  0  0  0  0  0  0  0  0  0  0
    7.7071    2.5138   -2.7703 H   0  0  0  0  0  0  0  0  0  0  0  0
   10.3747    3.7556   -2.0505 H   0  0  0  0  0  0  0  0  0  0  0  0
    9.9229    3.0379   -3.5982 H   0  0  0  0  0  0  0  0  0  0  0  0
    9.9296    0.8229   -2.7710 H   0  0  0  0  0  0  0  0  0  0  0  0
   12.2648    1.5891   -2.6686 H   0  0  0  0  0  0  0  0  0  0  0  0
   12.0559    3.4290   -0.9461 H   0  0  0  0  0  0  0  0  0  0  0  0
   12.4880    2.8439    1.4327 H   0  0  0  0  0  0  0  0  0  0  0  0
   10.8736    2.3789    0.9266 H   0  0  0  0  0  0  0  0  0  0  0  0
   12.1302    1.1470    1.1042 H   0  0  0  0  0  0  0  0  0  0  0  0
   13.8471    0.4219   -0.2258 H   0  0  0  0  0  0  0  0  0  0  0  0
   16.3305    1.5229   -1.3089 H   0  0  0  0  0  0  0  0  0  0  0  0
   15.7417   -1.1308    0.0743 H   0  0  0  0  0  0  0  0  0  0  0  0
   15.8192   -0.8130   -1.6547 H   0  0  0  0  0  0  0  0  0  0  0  0
   17.2904   -0.6917   -0.6807 H   0  0  0  0  0  0  0  0  0  0  0  0
   16.5034    2.6742    0.7676 H   0  0  0  0  0  0  0  0  0  0  0  0
   14.8544    2.9615    2.4213 H   0  0  0  0  0  0  0  0  0  0  0  0
   13.8478    2.2607    4.5605 H   0  0  0  0  0  0  0  0  0  0  0  0
   14.3903    0.0438    5.5310 H   0  0  0  0  0  0  0  0  0  0  0  0
   15.9518   -1.4760    4.3478 H   0  0  0  0  0  0  0  0  0  0  0  0
   16.9721   -0.7953    2.2072 H   0  0  0  0  0  0  0  0  0  0  0  0
   18.3036    1.4340    1.7294 H   0  0  0  0  0  0  0  0  0  0  0  0
   11.2990   -0.9033   -2.9525 H   0  0  0  0  0  0  0  0  0  0  0  0
   12.3578   -1.8525   -1.8907 H   0  0  0  0  0  0  0  0  0  0  0  0
   13.0661   -0.6201   -2.9534 H   0  0  0  0  0  0  0  0  0  0  0  0
    8.0398   -3.7154    2.7987 H   0  0  0  0  0  0  0  0  0  0  0  0
    8.3375   -2.8158    4.3044 H   0  0  0  0  0  0  0  0  0  0  0  0
    9.5750   -2.8163    3.0310 H   0  0  0  0  0  0  0  0  0  0  0  0
    3.9218   -2.4935    1.9635 H   0  0  0  0  0  0  0  0  0  0  0  0
    4.4378   -1.0579    2.9090 H   0  0  0  0  0  0  0  0  0  0  0  0
    5.4452   -2.4955    2.8755 H   0  0  0  0  0  0  0  0  0  0  0  0
    3.7006    0.5151    1.9313 H   0  0  0  0  0  0  0  0  0  0  0  0
    4.6320    2.3892    0.4684 H   0  0  0  0  0  0  0  0  0  0  0  0
    2.2168    1.8118   -1.3254 H   0  0  0  0  0  0  0  0  0  0  0  0
    3.8878    1.4616   -1.7899 H   0  0  0  0  0  0  0  0  0  0  0  0
    3.3917    3.1240   -1.4666 H   0  0  0  0  0  0  0  0  0  0  0  0
    2.9355    2.7129    2.2462 H   0  0  0  0  0  0  0  0  0  0  0  0
    2.6678    3.8059    0.8816 H   0  0  0  0  0  0  0  0  0  0  0  0
    1.6361    2.3808    1.0863 H   0  0  0  0  0  0  0  0  0  0  0  0
    2.4520   -0.4302   -0.6365 H   0  0  0  0  0  0  0  0  0  0  0  0
    1.1539   -2.6111    0.1294 H   0  0  0  0  0  0  0  0  0  0  0  0
   -1.3347   -2.7275    0.5374 H   0  0  0  0  0  0  0  0  0  0  0  0
   -1.0597   -3.8396    2.6848 H   0  0  0  0  0  0  0  0  0  0  0  0
    0.3162   -4.1873    1.6400 H   0  0  0  0  0  0  0  0  0  0  0  0
    0.4834   -3.0293    2.9708 H   0  0  0  0  0  0  0  0  0  0  0  0
   -0.7901   -0.5790    2.6403 H   0  0  0  0  0  0  0  0  0  0  0  0
   -2.0236   -0.5965    1.3642 H   0  0  0  0  0  0  0  0  0  0  0  0
   -2.1429   -1.7096    2.7089 H   0  0  0  0  0  0  0  0  0  0  0  0
    0.9419   -2.6434   -2.0652 H   0  0  0  0  0  0  0  0  0  0  0  0
   -0.8424   -2.5723   -1.9262 H   0  0  0  0  0  0  0  0  0  0  0  0
    0.0352   -1.4114   -2.9543 H   0  0  0  0  0  0  0  0  0  0  0  0
   -1.5364    2.1723   -3.0160 H   0  0  0  0  0  0  0  0  0  0  0  0
   -1.4869    2.3820   -1.2822 H   0  0  0  0  0  0  0  0  0  0  0  0
   -3.5381    1.3693   -4.1478 H   0  0  0  0  0  0  0  0  0  0  0  0
   -5.9148    0.8135   -4.0342 H   0  0  0  0  0  0  0  0  0  0  0  0
   -5.6701    0.6580    0.2784 H   0  0  0  0  0  0  0  0  0  0  0  0
   -3.3042    1.2280    0.1533 H   0  0  0  0  0  0  0  0  0  0  0  0
   -7.7633    0.2931   -2.8254 H   0  0  0  0  0  0  0  0  0  0  0  0
   -9.8352    0.0828   -2.1817 H   0  0  0  0  0  0  0  0  0  0  0  0
   -8.5206   -2.0968   -2.4175 H   0  0  0  0  0  0  0  0  0  0  0  0
  -10.2677   -2.1461   -2.5255 H   0  0  0  0  0  0  0  0  0  0  0  0
  -10.4782   -3.1184   -0.2921 H   0  0  0  0  0  0  0  0  0  0  0  0
   -9.4725   -4.0562   -1.3746 H   0  0  0  0  0  0  0  0  0  0  0  0
   -8.2528   -4.2069    0.5729 H   0  0  0  0  0  0  0  0  0  0  0  0
   -7.4091   -2.8924   -0.2543 H   0  0  0  0  0  0  0  0  0  0  0  0
   -8.2128   -1.3741    1.3305 H   0  0  0  0  0  0  0  0  0  0  0  0
   -9.8452   -2.0756    4.2262 H   0  0  0  0  0  0  0  0  0  0  0  0
   -8.5288   -1.2412    3.5414 H   0  0  0  0  0  0  0  0  0  0  0  0
  -10.5532   -0.9628    0.5042 H   0  0  0  0  0  0  0  0  0  0  0  0
  -12.9868   -0.1378    0.7844 H   0  0  0  0  0  0  0  0  0  0  0  0
  -11.0428    0.1156    2.3596 H   0  0  0  0  0  0  0  0  0  0  0  0
  -11.7322    3.0937    2.4481 H   0  0  0  0  0  0  0  0  0  0  0  0
  -10.2562    2.3829    1.7594 H   0  0  0  0  0  0  0  0  0  0  0  0
  -10.5884    2.2371    3.4878 H   0  0  0  0  0  0  0  0  0  0  0  0
  -12.3794    0.7355    4.3453 H   0  0  0  0  0  0  0  0  0  0  0  0
  -13.2926   -0.3080    3.2495 H   0  0  0  0  0  0  0  0  0  0  0  0
  -13.6328    1.4323    3.3052 H   0  0  0  0  0  0  0  0  0  0  0  0
  -12.9144    2.8234    0.5273 H   0  0  0  0  0  0  0  0  0  0  0  0
  -14.3175    3.7128   -1.0553 H   0  0  0  0  0  0  0  0  0  0  0  0
  -15.4906    3.4876    0.2547 H   0  0  0  0  0  0  0  0  0  0  0  0
  -15.8125    2.2887   -2.5543 H   0  0  0  0  0  0  0  0  0  0  0  0
  -16.4218    3.8828   -2.1109 H   0  0  0  0  0  0  0  0  0  0  0  0
  -17.2251    1.3057   -0.6801 H   0  0  0  0  0  0  0  0  0  0  0  0
  -17.8725    2.9143   -0.3648 H   0  0  0  0  0  0  0  0  0  0  0  0
  -18.0821    1.4395   -3.0458 H   0  0  0  0  0  0  0  0  0  0  0  0
  -18.7528    3.0310   -2.6963 H   0  0  0  0  0  0  0  0  0  0  0  0
  -20.5236    1.3742   -2.5529 H   0  0  0  0  0  0  0  0  0  0  0  0
  -20.2319    2.0387   -0.9322 H   0  0  0  0  0  0  0  0  0  0  0  0
  -19.0697   -2.2528    1.0314 H   0  0  0  0  0  0  0  0  0  0  0  0
  -19.0342   -3.1610   -1.4907 H   0  0  0  0  0  0  0  0  0  0  0  0
  1  2  1  0
  2  3  1  0
  3  4  1  0
  3  5  1  0
  5  6  1  0
  6  7  1  0
  7  8  1  0
  8  9  2  0
  8 10  1  0
 10 11  1  0
 11 12  1  0
 12 13  1  0
 13 14  1  0
 14 15  1  0
 15 16  1  0
 16 17  1  0
 16 18  1  0
 18 19  2  0
 18 20  1  0
 20 21  1  0
 21 22  1  0
 21 23  1  0
 23 24  1  0
 24 25  2  0
 25 26  1  0
 26 27  2  0
 27 28  1  0
 28 29  2  0
 23 30  1  0
 15 31  1  0
 31 32  1  0
  6 33  1  0
 33 34  1  0
  5 35  1  0
 35 36  1  0
 35 37  1  0
 37 38  2  0
 37 39  1  0
 39 40  1  0
 40 41  1  0
 40 42  1  0
 39 43  1  0
 43 44  1  0
 44 45  2  0
 44 46  1  0
 46 47  1  0
 47 48  1  0
 47 49  1  0
 46 50  1  0
 50 51  1  0
 50 52  1  0
 52 53  2  0
 52 54  1  0
 54 55  1  0
 55 56  1  0
 56 57  1  0
 57 58  2  0
 58 59  1  0
 59 60  2  0
 60 61  1  0
 59 62  1  0
 62 63  1  0
 63 64  2  0
 63 65  1  0
 65 66  1  0
 66 67  1  0
 67 68  1  0
 68 69  1  0
 69 70  1  0
 70 71  2  0
 70 72  1  0
 65 73  1  0
 73 74  1  0
 74 75  2  0
 74 76  1  0
 76 77  1  0
 77 78  1  0
 77 79  1  0
 76 80  1  0
 80 81  1  0
 81 82  2  0
 81 83  1  0
 83 84  1  0
 84 85  1  0
 85 86  1  0
 86 87  1  0
 87 88  1  0
 88 89  1  0
 89 90  2  0
 89 91  1  0
 91 92  2  0
 92 93  1  0
 93 94  2  0
 14 10  1  0
 29 24  1  0
 61 56  2  0
 93 88  1  0
  1 95  1  0
  1 96  1  0
  1 97  1  0
  2 98  1  0
  2 99  1  0
  3100  1  6
  4101  1  0
  4102  1  0
  4103  1  0
  5104  1  1
  6105  1  6
  7106  1  0
  7107  1  0
 11108  1  0
 11109  1  0
 12110  1  0
 12111  1  0
 13112  1  0
 13113  1  0
 14114  1  6
 15115  1  6
 16116  1  6
 17117  1  0
 17118  1  0
 17119  1  0
 20120  1  0
 21121  1  6
 22122  1  0
 22123  1  0
 22124  1  0
 23125  1  6
 25126  1  0
 26127  1  0
 27128  1  0
 28129  1  0
 29130  1  0
 30131  1  0
 32132  1  0
 32133  1  0
 32134  1  0
 34135  1  0
 34136  1  0
 34137  1  0
 36138  1  0
 36139  1  0
 36140  1  0
 39141  1  1
 40142  1  0
 41143  1  0
 41144  1  0
 41145  1  0
 42146  1  0
 42147  1  0
 42148  1  0
 43149  1  0
 46150  1  6
 47151  1  0
 48152  1  0
 48153  1  0
 48154  1  0
 49155  1  0
 49156  1  0
 49157  1  0
 51158  1  0
 51159  1  0
 51160  1  0
 55161  1  0
 55162  1  0
 57163  1  0
 58164  1  0
 60165  1  0
 61166  1  0
 62167  1  0
 65168  1  6
 66169  1  0
 66170  1  0
 67171  1  0
 67172  1  0
 68173  1  0
 68174  1  0
 69175  1  0
 72176  1  0
 72177  1  0
 73178  1  0
 76179  1  1
 77180  1  0
 78181  1  0
 78182  1  0
 78183  1  0
 79184  1  0
 79185  1  0
 79186  1  0
 80187  1  0
 83188  1  0
 83189  1  0
 84190  1  0
 84191  1  0
 85192  1  0
 85193  1  0
 86194  1  0
 86195  1  0
 87196  1  0
 87197  1  0
 91198  1  0
 92199  1  0
M  END
$$$$

     RDKit          3D

199202  0  0  0  0  0  0  0  0999 V2000
   -7.4290   -4.4269    0.9261 C   0  0  0  0  0  0  0  0  0  0  0  0
   -7.7108   -3.4293   -0.1983 C   0  0  0  0  0  0  0  0  0  0  0  0
   -6.7536   -3.4511   -1.4102 C   0  0  2  0  0  0  0  0  0  0  0  0
   -5.6346   -4.5049   -1.3416 C   0  0  0  0  0  0  0  0  0  0  0  0
   -6.1565   -2.0988   -1.8911 C   0  0  1  0  0  0  0  0  0  0  0  0
   -7.0372   -0.8232   -2.1102 C   0  0  1  0  0  0  0  0  0  0  0  0
   -8.2625   -0.8772   -3.0147 C   0  0  0  0  0  0  0  0  0  0  0  0
   -9.2941   -1.9758   -2.8172 C   0  0  0  0  0  0  0  0  0  0  0  0
   -9.2652   -2.9225   -3.6081 O   0  0  0  0  0  0  0  0  0  0  0  0
  -10.2635   -1.8768   -1.8293 N   0  0  0  0  0  0  0  0  0  0  0  0
  -11.1868   -3.0030   -1.7291 C   0  0  0  0  0  0  0  0  0  0  0  0
  -12.5252   -2.4663   -2.2332 C   0  0  0  0  0  0  0  0  0  0  0  0
  -12.3254   -0.9587   -2.3776 C   0  0  0  0  0  0  0  0  0  0  0  0
  -11.0387   -0.6471   -1.6128 C   0  0  1  0  0  0  0  0  0  0  0  0
  -11.2529   -0.1827   -0.1324 C   0  0  1  0  0  0  0  0  0  0  0  0
  -12.3122   -0.9004    0.7357 C   0  0  1  0  0  0  0  0  0  0  0  0
  -12.0811   -0.7425    2.2441 C   0  0  0  0  0  0  0  0  0  0  0  0
  -13.7292   -0.4119    0.4506 C   0  0  0  0  0  0  0  0  0  0  0  0
  -14.6500   -1.2010    0.2752 O   0  0  0  0  0  0  0  0  0  0  0  0
  -13.9098    0.9531    0.4554 N   0  0  0  0  0  0  0  0  0  0  0  0
  -15.2337    1.5845    0.3201 C   0  0  2  0  0  0  0  0  0  0  0  0
  -15.8374    1.3351   -1.0656 C   0  0  0  0  0  0  0  0  0  0  0  0
  -15.0792    3.1062    0.6000 C   0  0  1  0  0  0  0  0  0  0  0  0
  -16.3768    3.8261    0.8784 C   0  0  0  0  0  0  0  0  0  0  0  0
  -17.1115    4.3914   -0.1780 C   0  0  0  0  0  0  0  0  0  0  0  0
  -18.3309    5.0274    0.0614 C   0  0  0  0  0  0  0  0  0  0  0  0
  -18.8261    5.1301    1.3592 C   0  0  0  0  0  0  0  0  0  0  0  0
  -18.1002    4.6029    2.4175 C   0  0  0  0  0  0  0  0  0  0  0  0
  -16.8970    3.9399    2.1818 C   0  0  0  0  0  0  0  0  0  0  0  0
  -14.1678    3.2807    1.7042 O   0  0  0  0  0  0  0  0  0  0  0  0
   -9.9994   -0.1807    0.5532 O   0  0  0  0  0  0  0  0  0  0  0  0
   -9.6501    1.1036    1.0582 C   0  0  0  0  0  0  0  0  0  0  0  0
   -7.3164   -0.1239   -0.8954 O   0  0  0  0  0  0  0  0  0  0  0  0
   -6.9156    1.2389   -0.9673 C   0  0  0  0  0  0  0  0  0  0  0  0
   -4.8732   -1.6947   -1.2205 N   0  0  0  0  0  0  0  0  0  0  0  0
   -3.7815   -1.3605   -2.1306 C   0  0  0  0  0  0  0  0  0  0  0  0
   -4.8689   -1.3815    0.1386 C   0  0  0  0  0  0  0  0  0  0  0  0
   -5.6529   -1.8962    0.9380 O   0  0  0  0  0  0  0  0  0  0  0  0
   -3.8031   -0.3969    0.6745 C   0  0  1  0  0  0  0  0  0  0  0  0
   -4.2782    0.3660    1.9472 C   0  0  0  0  0  0  0  0  0  0  0  0
   -3.2873    1.4699    2.3365 C   0  0  0  0  0  0  0  0  0  0  0  0
   -4.5356   -0.5074    3.1866 C   0  0  0  0  0  0  0  0  0  0  0  0
   -2.5825   -1.1577    0.9099 N   0  0  0  0  0  0  0  0  0  0  0  0
   -1.3588   -0.6931    0.5041 C   0  0  0  0  0  0  0  0  0  0  0  0
   -1.2122    0.4482    0.0521 O   0  0  0  0  0  0  0  0  0  0  0  0
   -0.1329   -1.6156    0.6799 C   0  0  1  0  0  0  0  0  0  0  0  0
    0.3945   -1.6940    2.1290 C   0  0  0  0  0  0  0  0  0  0  0  0
    0.9240   -0.3222    2.5680 C   0  0  0  0  0  0  0  0  0  0  0  0
   -0.5980   -2.1921    3.1739 C   0  0  0  0  0  0  0  0  0  0  0  0
   -0.1849   -2.9281   -0.0103 N   0  0  0  0  0  0  0  0  0  0  0  0
   -1.3548   -3.7887    0.0297 C   0  0  0  0  0  0  0  0  0  0  0  0
    0.8193   -3.2824   -0.9145 C   0  0  0  0  0  0  0  0  0  0  0  0
    0.7575   -4.2403   -1.6797 O   0  0  0  0  0  0  0  0  0  0  0  0
    1.8946   -2.4568   -0.8565 O   0  0  0  0  0  0  0  0  0  0  0  0
    2.9365   -2.7202   -1.8042 C   0  0  0  0  0  0  0  0  0  0  0  0
    4.1341   -1.8616   -1.4766 C   0  0  0  0  0  0  0  0  0  0  0  0
    4.0086   -0.6384   -0.8046 C   0  0  0  0  0  0  0  0  0  0  0  0
    5.1347    0.0971   -0.4469 C   0  0  0  0  0  0  0  0  0  0  0  0
    6.4061   -0.3908   -0.7343 C   0  0  0  0  0  0  0  0  0  0  0  0
    6.5442   -1.5867   -1.4398 C   0  0  0  0  0  0  0  0  0  0  0  0
    5.4125   -2.2998   -1.8426 C   0  0  0  0  0  0  0  0  0  0  0  0
    7.5664    0.2124   -0.2179 N   0  0  0  0  0  0  0  0  0  0  0  0
    7.7332    1.5683   -0.0432 C   0  0  0  0  0  0  0  0  0  0  0  0
    7.1949    2.4162   -0.7428 O   0  0  0  0  0  0  0  0  0  0  0  0
    8.8192    1.9345    1.0027 C   0  0  1  0  0  0  0  0  0  0  0  0
    8.3816    1.6534    2.4471 C   0  0  0  0  0  0  0  0  0  0  0  0
    8.0282    0.2271    2.8972 C   0  0  0  0  0  0  0  0  0  0  0  0
    9.0684   -0.8727    2.6923 C   0  0  0  0  0  0  0  0  0  0  0  0
   10.4033   -0.5095    3.1474 N   0  0  0  0  0  0  0  0  0  0  0  0
   11.4948   -1.1079    2.5779 C   0  0  0  0  0  0  0  0  0  0  0  0
   11.4589   -1.7466    1.5328 O   0  0  0  0  0  0  0  0  0  0  0  0
   12.6684   -0.7992    3.1855 N   0  0  0  0  0  0  0  0  0  0  0  0
   10.0821    1.3020    0.6343 N   0  0  0  0  0  0  0  0  0  0  0  0
   10.8968    1.8762   -0.3238 C   0  0  0  0  0  0  0  0  0  0  0  0
   10.5675    2.8302   -1.0139 O   0  0  0  0  0  0  0  0  0  0  0  0
   12.2674    1.1721   -0.4965 C   0  0  1  0  0  0  0  0  0  0  0  0
   12.1317   -0.0556   -1.4109 C   0  0  0  0  0  0  0  0  0  0  0  0
   13.4148   -0.8859   -1.3694 C   0  0  0  0  0  0  0  0  0  0  0  0
   11.7951    0.3058   -2.8603 C   0  0  0  0  0  0  0  0  0  0  0  0
   13.2142    2.1579   -1.0127 N   0  0  0  0  0  0  0  0  0  0  0  0
   14.3591    2.4934   -0.3215 C   0  0  0  0  0  0  0  0  0  0  0  0
   14.6906    1.9610    0.7371 O   0  0  0  0  0  0  0  0  0  0  0  0
   15.1598    3.5838   -1.0134 C   0  0  0  0  0  0  0  0  0  0  0  0
   16.4766    3.8955   -0.3096 C   0  0  0  0  0  0  0  0  0  0  0  0
   17.5288    2.7849   -0.3957 C   0  0  0  0  0  0  0  0  0  0  0  0
   18.0693    2.6071   -1.8183 C   0  0  0  0  0  0  0  0  0  0  0  0
   19.2017    1.5807   -1.8950 C   0  0  0  0  0  0  0  0  0  0  0  0
   20.3747    1.9755   -1.1323 N   0  0  0  0  0  0  0  0  0  0  0  0
   21.2172    2.9832   -1.4850 C   0  0  0  0  0  0  0  0  0  0  0  0
   21.1345    3.7747   -2.4012 O   0  0  0  0  0  0  0  0  0  0  0  0
   22.3127    2.9941   -0.5040 C   0  0  0  0  0  0  0  0  0  0  0  0
   22.0905    2.0065    0.3704 C   0  0  0  0  0  0  0  0  0  0  0  0
   20.8664    1.3080   -0.0522 C   0  0  0  0  0  0  0  0  0  0  0  0
   20.4622    0.2862    0.4678 O   0  0  0  0  0  0  0  0  0  0  0  0
   -8.1878   -4.3272    1.7070 H   0  0  0  0  0  0  0  0  0  0  0  0
   -7.4944   -5.4546    0.5517 H   0  0  0  0  0  0  0  0  0  0  0  0
   -6.4446   -4.2871    1.3837 H   0  0  0  0  0  0  0  0  0  0  0  0
   -7.8082   -2.4315    0.2321 H   0  0  0  0  0  0  0  0  0  0  0  0
   -8.7095   -3.6925   -0.5694 H   0  0  0  0  0  0  0  0  0  0  0  0
   -7.3814   -3.8000   -2.2384 H   0  0  0  0  0  0  0  0  0  0  0  0
   -6.0394   -5.5020   -1.1478 H   0  0  0  0  0  0  0  0  0  0  0  0
   -4.9064   -4.2623   -0.5636 H   0  0  0  0  0  0  0  0  0  0  0  0
   -5.1010   -4.5614   -2.3004 H   0  0  0  0  0  0  0  0  0  0  0  0
   -5.8357   -2.3570   -2.9159 H   0  0  0  0  0  0  0  0  0  0  0  0
   -6.3604   -0.1719   -2.6853 H   0  0  0  0  0  0  0  0  0  0  0  0
   -8.7518    0.0984   -3.0116 H   0  0  0  0  0  0  0  0  0  0  0  0
   -7.9010   -1.0069   -4.0471 H   0  0  0  0  0  0  0  0  0  0  0  0
  -11.2453   -3.3066   -0.6774 H   0  0  0  0  0  0  0  0  0  0  0  0
  -10.8603   -3.8855   -2.2887 H   0  0  0  0  0  0  0  0  0  0  0  0
  -13.3379   -2.7307   -1.5496 H   0  0  0  0  0  0  0  0  0  0  0  0
  -12.7626   -2.9114   -3.2073 H   0  0  0  0  0  0  0  0  0  0  0  0
  -13.1926   -0.3651   -2.0752 H   0  0  0  0  0  0  0  0  0  0  0  0
  -12.1558   -0.7441   -3.4392 H   0  0  0  0  0  0  0  0  0  0  0  0
  -10.5458    0.1931   -2.1093 H   0  0  0  0  0  0  0  0  0  0  0  0
  -11.5643    0.8673   -0.2301 H   0  0  0  0  0  0  0  0  0  0  0  0
  -12.2901   -1.9742    0.5509 H   0  0  0  0  0  0  0  0  0  0  0  0
  -12.8358   -1.3059    2.8061 H   0  0  0  0  0  0  0  0  0  0  0  0
  -11.0997   -1.1308    2.5281 H   0  0  0  0  0  0  0  0  0  0  0  0
  -12.1617    0.3016    2.5620 H   0  0  0  0  0  0  0  0  0  0  0  0
  -13.2095    1.5399    0.8994 H   0  0  0  0  0  0  0  0  0  0  0  0
  -15.8797    1.1140    1.0722 H   0  0  0  0  0  0  0  0  0  0  0  0
  -15.9488    0.2653   -1.2660 H   0  0  0  0  0  0  0  0  0  0  0  0
  -15.2070    1.7649   -1.8482 H   0  0  0  0  0  0  0  0  0  0  0  0
  -16.8322    1.7765   -1.1375 H   0  0  0  0  0  0  0  0  0  0  0  0
  -14.5795    3.5794   -0.2554 H   0  0  0  0  0  0  0  0  0  0  0  0
  -16.7459    4.3178   -1.1972 H   0  0  0  0  0  0  0  0  0  0  0  0
  -18.8898    5.4453   -0.7659 H   0  0  0  0  0  0  0  0  0  0  0  0
  -19.7664    5.6378    1.5410 H   0  0  0  0  0  0  0  0  0  0  0  0
  -18.4846    4.6967    3.4283 H   0  0  0  0  0  0  0  0  0  0  0  0
  -16.3559    3.5477    3.0377 H   0  0  0  0  0  0  0  0  0  0  0  0
  -14.4778    2.6987    2.4217 H   0  0  0  0  0  0  0  0  0  0  0  0
   -8.7161    1.0028    1.6130 H   0  0  0  0  0  0  0  0  0  0  0  0
   -9.5087    1.7984    0.2247 H   0  0  0  0  0  0  0  0  0  0  0  0
  -10.4229    1.4842    1.7336 H   0  0  0  0  0  0  0  0  0  0  0  0
   -7.4985    1.7666   -1.7308 H   0  0  0  0  0  0  0  0  0  0  0  0
   -5.8406    1.3222   -1.1748 H   0  0  0  0  0  0  0  0  0  0  0  0
   -7.0994    1.7055   -0.0009 H   0  0  0  0  0  0  0  0  0  0  0  0
   -4.0583   -0.4682   -2.7020 H   0  0  0  0  0  0  0  0  0  0  0  0
   -3.6190   -2.2060   -2.8133 H   0  0  0  0  0  0  0  0  0  0  0  0
   -2.8433   -1.1532   -1.6142 H   0  0  0  0  0  0  0  0  0  0  0  0
   -3.6417    0.3641   -0.0943 H   0  0  0  0  0  0  0  0  0  0  0  0
   -5.2291    0.8590    1.7038 H   0  0  0  0  0  0  0  0  0  0  0  0
   -3.7046    2.0970    3.1378 H   0  0  0  0  0  0  0  0  0  0  0  0
   -2.3515    1.0390    2.7109 H   0  0  0  0  0  0  0  0  0  0  0  0
   -3.0545    2.1231    1.4885 H   0  0  0  0  0  0  0  0  0  0  0  0
   -5.5150   -0.9910    3.1298 H   0  0  0  0  0  0  0  0  0  0  0  0
   -4.5415    0.1007    4.1046 H   0  0  0  0  0  0  0  0  0  0  0  0
   -3.7797   -1.2905    3.3001 H   0  0  0  0  0  0  0  0  0  0  0  0
   -2.6929   -2.0687    1.3409 H   0  0  0  0  0  0  0  0  0  0  0  0
    0.6326   -1.0434    0.1332 H   0  0  0  0  0  0  0  0  0  0  0  0
    1.2443   -2.3922    2.1333 H   0  0  0  0  0  0  0  0  0  0  0  0
    0.1065    0.4061    2.6659 H   0  0  0  0  0  0  0  0  0  0  0  0
    1.6370    0.0637    1.8297 H   0  0  0  0  0  0  0  0  0  0  0  0
    1.4402   -0.3960    3.5305 H   0  0  0  0  0  0  0  0  0  0  0  0
   -0.1121   -2.2465    4.1523 H   0  0  0  0  0  0  0  0  0  0  0  0
   -0.9689   -3.1936    2.9524 H   0  0  0  0  0  0  0  0  0  0  0  0
   -1.4434   -1.5074    3.2822 H   0  0  0  0  0  0  0  0  0  0  0  0
   -1.7002   -3.9228    1.0553 H   0  0  0  0  0  0  0  0  0  0  0  0
   -2.1458   -3.3650   -0.5941 H   0  0  0  0  0  0  0  0  0  0  0  0
   -1.1228   -4.7835   -0.3628 H   0  0  0  0  0  0  0  0  0  0  0  0
    3.2189   -3.7790   -1.7521 H   0  0  0  0  0  0  0  0  0  0  0  0
    2.5738   -2.4803   -2.8120 H   0  0  0  0  0  0  0  0  0  0  0  0
    3.0307   -0.2661   -0.5122 H   0  0  0  0  0  0  0  0  0  0  0  0
    5.0102    1.0096    0.1276 H   0  0  0  0  0  0  0  0  0  0  0  0
    7.5229   -1.9770   -1.6933 H   0  0  0  0  0  0  0  0  0  0  0  0
    5.5424   -3.2230   -2.3998 H   0  0  0  0  0  0  0  0  0  0  0  0
    8.4420   -0.2871   -0.2964 H   0  0  0  0  0  0  0  0  0  0  0  0
    8.9637    3.0191    0.9329 H   0  0  0  0  0  0  0  0  0  0  0  0
    9.1718    2.0267    3.1097 H   0  0  0  0  0  0  0  0  0  0  0  0
    7.4955    2.2654    2.6507 H   0  0  0  0  0  0  0  0  0  0  0  0
    7.0901   -0.0877    2.4202 H   0  0  0  0  0  0  0  0  0  0  0  0
    7.8094    0.2770    3.9740 H   0  0  0  0  0  0  0  0  0  0  0  0
    8.7745   -1.7624    3.2644 H   0  0  0  0  0  0  0  0  0  0  0  0
    9.1041   -1.1758    1.6412 H   0  0  0  0  0  0  0  0  0  0  0  0
   10.5127   -0.1761    4.0984 H   0  0  0  0  0  0  0  0  0  0  0  0
   13.4727   -1.1888    2.7060 H   0  0  0  0  0  0  0  0  0  0  0  0
   12.7314   -0.8922    4.1929 H   0  0  0  0  0  0  0  0  0  0  0  0
   10.5463    0.7396    1.3465 H   0  0  0  0  0  0  0  0  0  0  0  0
   12.6041    0.8531    0.4954 H   0  0  0  0  0  0  0  0  0  0  0  0
   11.3170   -0.6831   -1.0324 H   0  0  0  0  0  0  0  0  0  0  0  0
   13.6410   -1.1914   -0.3422 H   0  0  0  0  0  0  0  0  0  0  0  0
   14.2730   -0.3132   -1.7457 H   0  0  0  0  0  0  0  0  0  0  0  0
   13.3202   -1.7929   -1.9708 H   0  0  0  0  0  0  0  0  0  0  0  0
   11.5900   -0.6025   -3.4419 H   0  0  0  0  0  0  0  0  0  0  0  0
   10.9043    0.9403   -2.9040 H   0  0  0  0  0  0  0  0  0  0  0  0
   12.6210    0.8413   -3.3487 H   0  0  0  0  0  0  0  0  0  0  0  0
   12.8743    2.7680   -1.7492 H   0  0  0  0  0  0  0  0  0  0  0  0
   14.5398    4.4881   -1.0071 H   0  0  0  0  0  0  0  0  0  0  0  0
   15.3301    3.3018   -2.0576 H   0  0  0  0  0  0  0  0  0  0  0  0
   16.2798    4.0990    0.7493 H   0  0  0  0  0  0  0  0  0  0  0  0
   16.9062    4.8107   -0.7374 H   0  0  0  0  0  0  0  0  0  0  0  0
   18.3601    3.0485    0.2733 H   0  0  0  0  0  0  0  0  0  0  0  0
   17.1272    1.8280   -0.0375 H   0  0  0  0  0  0  0  0  0  0  0  0
   18.4241    3.5738   -2.2006 H   0  0  0  0  0  0  0  0  0  0  0  0
   17.2618    2.2636   -2.4773 H   0  0  0  0  0  0  0  0  0  0  0  0
   18.8450    0.6050   -1.5483 H   0  0  0  0  0  0  0  0  0  0  0  0
   19.5131    1.4743   -2.9407 H   0  0  0  0  0  0  0  0  0  0  0  0
   23.1267    3.6963   -0.5173 H   0  0  0  0  0  0  0  0  0  0  0  0
   22.6956    1.7054    1.2032 H   0  0  0  0  0  0  0  0  0  0  0  0
  1  2  1  0
  2  3  1  0
  3  4  1  0
  3  5  1  0
  5  6  1  0
  6  7  1  0
  7  8  1  0
  8  9  2  0
  8 10  1  0
 10 11  1  0
 11 12  1  0
 12 13  1  0
 13 14  1  0
 14 15  1  0
 15 16  1  0
 16 17  1  0
 16 18  1  0
 18 19  2  0
 18 20  1  0
 20 21  1  0
 21 22  1  0
 21 23  1  0
 23 24  1  0
 24 25  2  0
 25 26  1  0
 26 27  2  0
 27 28  1  0
 28 29  2  0
 23 30  1  0
 15 31  1  0
 31 32  1  0
  6 33  1  0
 33 34  1  0
  5 35  1  0
 35 36  1  0
 35 37  1  0
 37 38  2  0
 37 39  1  0
 39 40  1  0
 40 41  1  0
 40 42  1  0
 39 43  1  0
 43 44  1  0
 44 45  2  0
 44 46  1  0
 46 47  1  0
 47 48  1  0
 47 49  1  0
 46 50  1  0
 50 51  1  0
 50 52  1  0
 52 53  2  0
 52 54  1  0
 54 55  1  0
 55 56  1  0
 56 57  1  0
 57 58  2  0
 58 59  1  0
 59 60  2  0
 60 61  1  0
 59 62  1  0
 62 63  1  0
 63 64  2  0
 63 65  1  0
 65 66  1  0
 66 67  1  0
 67 68  1  0
 68 69  1  0
 69 70  1  0
 70 71  2  0
 70 72  1  0
 65 73  1  0
 73 74  1  0
 74 75  2  0
 74 76  1  0
 76 77  1  0
 77 78  1  0
 77 79  1  0
 76 80  1  0
 80 81  1  0
 81 82  2  0
 81 83  1  0
 83 84  1  0
 84 85  1  0
 85 86  1  0
 86 87  1  0
 87 88  1  0
 88 89  1  0
 89 90  2  0
 89 91  1  0
 91 92  2  0
 92 93  1  0
 93 94  2  0
 14 10  1  0
 29 24  1  0
 61 56  2  0
 93 88  1  0
  1 95  1  0
  1 96  1  0
  1 97  1  0
  2 98  1  0
  2 99  1  0
  3100  1  6
  4101  1  0
  4102  1  0
  4103  1  0
  5104  1  6
  6105  1  6
  7106  1  0
  7107  1  0
 11108  1  0
 11109  1  0
 12110  1  0
 12111  1  0
 13112  1  0
 13113  1  0
 14114  1  6
 15115  1  6
 16116  1  1
 17117  1  0
 17118  1  0
 17119  1  0
 20120  1  0
 21121  1  1
 22122  1  0
 22123  1  0
 22124  1  0
 23125  1  6
 25126  1  0
 26127  1  0
 27128  1  0
 28129  1  0
 29130  1  0
 30131  1  0
 32132  1  0
 32133  1  0
 32134  1  0
 34135  1  0
 34136  1  0
 34137  1  0
 36138  1  0
 36139  1  0
 36140  1  0
 39141  1  6
 40142  1  0
 41143  1  0
 41144  1  0
 41145  1  0
 42146  1  0
 42147  1  0
 42148  1  0
 43149  1  0
 46150  1  6
 47151  1  0
 48152  1  0
 48153  1  0
 48154  1  0
 49155  1  0
 49156  1  0
 49157  1  0
 51158  1  0
 51159  1  0
 51160  1  0
 55161  1  0
 55162  1  0
 57163  1  0
 58164  1  0
 60165  1  0
 61166  1  0
 62167  1  0
 65168  1  1
 66169  1  0
 66170  1  0
 67171  1  0
 67172  1  0
 68173  1  0
 68174  1  0
 69175  1  0
 72176  1  0
 72177  1  0
 73178  1  0
 76179  1  1
 77180  1  0
 78181  1  0
 78182  1  0
 78183  1  0
 79184  1  0
 79185  1  0
 79186  1  0
 80187  1  0
 83188  1  0
 83189  1  0
 84190  1  0
 84191  1  0
 85192  1  0
 85193  1  0
 86194  1  0
 86195  1  0
 87196  1  0
 87197  1  0
 91198  1  0
 92199  1  0
M  END
$$$$

     RDKit          3D

199202  0  0  0  0  0  0  0  0999 V2000
   -7.8617    2.3157    2.9745 C   0  0  0  0  0  0  0  0  0  0  0  0
   -6.5182    2.8435    2.4895 C   0  0  0  0  0  0  0  0  0  0  0  0
   -5.9402    2.1632    1.2195 C   0  0  2  0  0  0  0  0  0  0  0  0
   -6.8322    2.4643    0.0127 C   0  0  0  0  0  0  0  0  0  0  0  0
   -5.6048    0.6478    1.4711 C   0  0  1  0  0  0  0  0  0  0  0  0
   -6.5911   -0.4200    0.8776 C   0  0  1  0  0  0  0  0  0  0  0  0
   -6.3725   -0.8182   -0.5845 C   0  0  0  0  0  0  0  0  0  0  0  0
   -7.6845   -0.8467   -1.3516 C   0  0  0  0  0  0  0  0  0  0  0  0
   -8.0290    0.1357   -2.0094 O   0  0  0  0  0  0  0  0  0  0  0  0
   -8.4845   -1.9713   -1.2691 N   0  0  0  0  0  0  0  0  0  0  0  0
   -8.0325   -3.2800   -0.8144 C   0  0  0  0  0  0  0  0  0  0  0  0
   -9.1798   -4.2238   -1.1314 C   0  0  0  0  0  0  0  0  0  0  0  0
   -9.7829   -3.5881   -2.3743 C   0  0  0  0  0  0  0  0  0  0  0  0
   -9.7283   -2.0805   -2.0578 C   0  0  1  0  0  0  0  0  0  0  0  0
  -10.9887   -1.5629   -1.2865 C   0  0  1  0  0  0  0  0  0  0  0  0
  -11.0209   -0.0233   -1.1553 C   0  0  1  0  0  0  0  0  0  0  0  0
  -11.2000    0.7264   -2.4798 C   0  0  0  0  0  0  0  0  0  0  0  0
  -12.0775    0.4093   -0.1431 C   0  0  0  0  0  0  0  0  0  0  0  0
  -11.7713    0.7514    1.0006 O   0  0  0  0  0  0  0  0  0  0  0  0
  -13.3804    0.3389   -0.5790 N   0  0  0  0  0  0  0  0  0  0  0  0
  -14.4867    0.9949    0.1270 C   0  0  2  0  0  0  0  0  0  0  0  0
  -15.5949   -0.0286    0.3656 C   0  0  0  0  0  0  0  0  0  0  0  0
  -14.9944    2.2260   -0.6832 C   0  0  1  0  0  0  0  0  0  0  0  0
  -16.1106    3.0014   -0.0106 C   0  0  0  0  0  0  0  0  0  0  0  0
  -15.9174    3.6070    1.2407 C   0  0  0  0  0  0  0  0  0  0  0  0
  -16.9487    4.3229    1.8492 C   0  0  0  0  0  0  0  0  0  0  0  0
  -18.1805    4.4498    1.2110 C   0  0  0  0  0  0  0  0  0  0  0  0
  -18.3824    3.8610   -0.0355 C   0  0  0  0  0  0  0  0  0  0  0  0
  -17.3539    3.1417   -0.6450 C   0  0  0  0  0  0  0  0  0  0  0  0
  -13.9046    3.1176   -0.9543 O   0  0  0  0  0  0  0  0  0  0  0  0
  -12.1759   -1.9914   -1.9904 O   0  0  0  0  0  0  0  0  0  0  0  0
  -12.9859   -2.8798   -1.2232 C   0  0  0  0  0  0  0  0  0  0  0  0
   -6.4581   -1.6535    1.6400 O   0  0  0  0  0  0  0  0  0  0  0  0
   -7.3113   -1.7100    2.7790 C   0  0  0  0  0  0  0  0  0  0  0  0
   -4.1426    0.3120    1.3177 N   0  0  0  0  0  0  0  0  0  0  0  0
   -3.5508   -0.3260    2.4870 C   0  0  0  0  0  0  0  0  0  0  0  0
   -3.4557    0.6317    0.1454 C   0  0  0  0  0  0  0  0  0  0  0  0
   -3.9937    1.3276   -0.7254 O   0  0  0  0  0  0  0  0  0  0  0  0
   -1.9701    0.2280   -0.0886 C   0  0  1  0  0  0  0  0  0  0  0  0
   -0.9529    1.0546    0.7352 C   0  0  0  0  0  0  0  0  0  0  0  0
    0.4872    0.7237    0.3214 C   0  0  0  0  0  0  0  0  0  0  0  0
   -1.1836    2.5619    0.5657 C   0  0  0  0  0  0  0  0  0  0  0  0
   -1.7680   -1.2201    0.0463 N   0  0  0  0  0  0  0  0  0  0  0  0
   -1.4571   -2.0337   -1.0278 C   0  0  0  0  0  0  0  0  0  0  0  0
   -1.2905   -1.5951   -2.1644 O   0  0  0  0  0  0  0  0  0  0  0  0
   -1.4102   -3.5472   -0.6878 C   0  0  1  0  0  0  0  0  0  0  0  0
   -2.8257   -4.1952   -0.5956 C   0  0  0  0  0  0  0  0  0  0  0  0
   -3.4612   -3.9794    0.7845 C   0  0  0  0  0  0  0  0  0  0  0  0
   -3.8149   -3.7200   -1.6656 C   0  0  0  0  0  0  0  0  0  0  0  0
   -0.4808   -4.2782   -1.5821 N   0  0  0  0  0  0  0  0  0  0  0  0
   -0.9130   -4.6506   -2.9202 C   0  0  0  0  0  0  0  0  0  0  0  0
    0.8484   -4.4974   -1.2536 C   0  0  0  0  0  0  0  0  0  0  0  0
    1.6139   -5.1665   -1.9390 O   0  0  0  0  0  0  0  0  0  0  0  0
    1.2102   -3.9194   -0.0755 O   0  0  0  0  0  0  0  0  0  0  0  0
    2.5226   -4.2463    0.4010 C   0  0  0  0  0  0  0  0  0  0  0  0
    3.5297   -3.1725    0.0728 C   0  0  0  0  0  0  0  0  0  0  0  0
    4.0067   -2.3077    1.0645 C   0  0  0  0  0  0  0  0  0  0  0  0
    5.0031   -1.3654    0.7767 C   0  0  0  0  0  0  0  0  0  0  0  0
    5.5401   -1.2702   -0.5076 C   0  0  0  0  0  0  0  0  0  0  0  0
    5.0350   -2.1059   -1.5096 C   0  0  0  0  0  0  0  0  0  0  0  0
    4.0460   -3.0514   -1.2212 C   0  0  0  0  0  0  0  0  0  0  0  0
    6.5750   -0.3831   -0.8694 N   0  0  0  0  0  0  0  0  0  0  0  0
    7.3452    0.4042   -0.0250 C   0  0  0  0  0  0  0  0  0  0  0  0
    7.2342    0.4773    1.1981 O   0  0  0  0  0  0  0  0  0  0  0  0
    8.3798    1.2751   -0.7875 C   0  0  1  0  0  0  0  0  0  0  0  0
    7.6891    2.5760   -1.2178 C   0  0  0  0  0  0  0  0  0  0  0  0
    8.4316    3.3606   -2.3069 C   0  0  0  0  0  0  0  0  0  0  0  0
    9.3554    4.4645   -1.7954 C   0  0  0  0  0  0  0  0  0  0  0  0
   10.6529    3.9972   -1.3698 N   0  0  0  0  0  0  0  0  0  0  0  0
   11.5447    4.9144   -0.8828 C   0  0  0  0  0  0  0  0  0  0  0  0
   11.2772    6.0571   -0.5360 O   0  0  0  0  0  0  0  0  0  0  0  0
   12.8142    4.4489   -0.8686 N   0  0  0  0  0  0  0  0  0  0  0  0
    9.5158    1.5168    0.0887 N   0  0  0  0  0  0  0  0  0  0  0  0
   10.5172    0.5774    0.2024 C   0  0  0  0  0  0  0  0  0  0  0  0
   10.6001   -0.3943   -0.5524 O   0  0  0  0  0  0  0  0  0  0  0  0
   11.5170    0.8125    1.3597 C   0  0  1  0  0  0  0  0  0  0  0  0
   11.0238    0.3021    2.7341 C   0  0  0  0  0  0  0  0  0  0  0  0
    9.9928    1.2339    3.3730 C   0  0  0  0  0  0  0  0  0  0  0  0
   10.4826   -1.1308    2.6984 C   0  0  0  0  0  0  0  0  0  0  0  0
   12.7771    0.1492    1.0043 N   0  0  0  0  0  0  0  0  0  0  0  0
   13.7250    0.8060    0.2502 C   0  0  0  0  0  0  0  0  0  0  0  0
   13.6144    1.9820   -0.0786 O   0  0  0  0  0  0  0  0  0  0  0  0
   14.9076   -0.0744   -0.1222 C   0  0  0  0  0  0  0  0  0  0  0  0
   16.0166    0.7230   -0.8096 C   0  0  0  0  0  0  0  0  0  0  0  0
   17.1743   -0.1378   -1.3250 C   0  0  0  0  0  0  0  0  0  0  0  0
   17.9150   -0.9707   -0.2729 C   0  0  0  0  0  0  0  0  0  0  0  0
   18.5836   -0.1660    0.8468 C   0  0  0  0  0  0  0  0  0  0  0  0
   19.6839    0.6528    0.3803 N   0  0  0  0  0  0  0  0  0  0  0  0
   20.9321    0.1876    0.1182 C   0  0  0  0  0  0  0  0  0  0  0  0
   21.3601   -0.9489    0.2052 O   0  0  0  0  0  0  0  0  0  0  0  0
   21.7404    1.3362   -0.3047 C   0  0  0  0  0  0  0  0  0  0  0  0
   20.9586    2.4161   -0.2723 C   0  0  0  0  0  0  0  0  0  0  0  0
   19.6285    1.9918    0.1739 C   0  0  0  0  0  0  0  0  0  0  0  0
   18.6907    2.7557    0.3162 O   0  0  0  0  0  0  0  0  0  0  0  0
   -7.8144    1.2568    3.2341 H   0  0  0  0  0  0  0  0  0  0  0  0
   -8.6486    2.4543    2.2289 H   0  0  0  0  0  0  0  0  0  0  0  0
   -8.1661    2.8559    3.8763 H   0  0  0  0  0  0  0  0  0  0  0  0
   -6.6195    3.9202    2.3017 H   0  0  0  0  0  0  0  0  0  0  0  0
   -5.7895    2.7487    3.3052 H   0  0  0  0  0  0  0  0  0  0  0  0
   -4.9950    2.6951    1.0472 H   0  0  0  0  0  0  0  0  0  0  0  0
   -6.9239    3.5447   -0.1286 H   0  0  0  0  0  0  0  0  0  0  0  0
   -7.8405    2.0602    0.1252 H   0  0  0  0  0  0  0  0  0  0  0  0
   -6.4081    2.0699   -0.9106 H   0  0  0  0  0  0  0  0  0  0  0  0
   -5.7385    0.5417    2.5544 H   0  0  0  0  0  0  0  0  0  0  0  0
   -7.6189   -0.0562    1.0093 H   0  0  0  0  0  0  0  0  0  0  0  0
   -5.7524   -0.1101   -1.1303 H   0  0  0  0  0  0  0  0  0  0  0  0
   -5.8813   -1.7886   -0.6705 H   0  0  0  0  0  0  0  0  0  0  0  0
   -7.7950   -3.2672    0.2496 H   0  0  0  0  0  0  0  0  0  0  0  0
   -7.1405   -3.5514   -1.3870 H   0  0  0  0  0  0  0  0  0  0  0  0
   -9.9109   -4.2285   -0.3152 H   0  0  0  0  0  0  0  0  0  0  0  0
   -8.8428   -5.2509   -1.2962 H   0  0  0  0  0  0  0  0  0  0  0  0
   -9.1353   -3.8013   -3.2350 H   0  0  0  0  0  0  0  0  0  0  0  0
  -10.7748   -3.9744   -2.6171 H   0  0  0  0  0  0  0  0  0  0  0  0
   -9.6242   -1.5390   -3.0054 H   0  0  0  0  0  0  0  0  0  0  0  0
  -10.9799   -1.9933   -0.2746 H   0  0  0  0  0  0  0  0  0  0  0  0
  -10.0802    0.3185   -0.7081 H   0  0  0  0  0  0  0  0  0  0  0  0
  -12.0524    0.3568   -3.0590 H   0  0  0  0  0  0  0  0  0  0  0  0
  -11.3602    1.7955   -2.3019 H   0  0  0  0  0  0  0  0  0  0  0  0
  -10.3154    0.6329   -3.1138 H   0  0  0  0  0  0  0  0  0  0  0  0
  -13.5341    0.0544   -1.5381 H   0  0  0  0  0  0  0  0  0  0  0  0
  -14.1092    1.3351    1.0981 H   0  0  0  0  0  0  0  0  0  0  0  0
  -15.2010   -0.9035    0.8936 H   0  0  0  0  0  0  0  0  0  0  0  0
  -16.0224   -0.3788   -0.5802 H   0  0  0  0  0  0  0  0  0  0  0  0
  -16.4038    0.3886    0.9730 H   0  0  0  0  0  0  0  0  0  0  0  0
  -15.3356    1.8761   -1.6659 H   0  0  0  0  0  0  0  0  0  0  0  0
  -14.9558    3.5288    1.7465 H   0  0  0  0  0  0  0  0  0  0  0  0
  -16.7885    4.7844    2.8191 H   0  0  0  0  0  0  0  0  0  0  0  0
  -18.9819    5.0114    1.6841 H   0  0  0  0  0  0  0  0  0  0  0  0
  -19.3412    3.9657   -0.5365 H   0  0  0  0  0  0  0  0  0  0  0  0
  -17.5303    2.6937   -1.6201 H   0  0  0  0  0  0  0  0  0  0  0  0
  -14.2363    4.0286   -0.8726 H   0  0  0  0  0  0  0  0  0  0  0  0
  -12.4438   -3.8013   -0.9947 H   0  0  0  0  0  0  0  0  0  0  0  0
  -13.3133   -2.4070   -0.2934 H   0  0  0  0  0  0  0  0  0  0  0  0
  -13.8692   -3.1321   -1.8153 H   0  0  0  0  0  0  0  0  0  0  0  0
   -8.3587   -1.5789    2.4880 H   0  0  0  0  0  0  0  0  0  0  0  0
   -7.2013   -2.6988    3.2338 H   0  0  0  0  0  0  0  0  0  0  0  0
   -7.0237   -0.9607    3.5209 H   0  0  0  0  0  0  0  0  0  0  0  0
   -2.4794   -0.4702    2.4173 H   0  0  0  0  0  0  0  0  0  0  0  0
   -3.7347    0.3020    3.3659 H   0  0  0  0  0  0  0  0  0  0  0  0
   -4.0228   -1.3012    2.6386 H   0  0  0  0  0  0  0  0  0  0  0  0
   -1.7883    0.4716   -1.1444 H   0  0  0  0  0  0  0  0  0  0  0  0
   -1.0407    0.8287    1.8006 H   0  0  0  0  0  0  0  0  0  0  0  0
    0.7177   -0.3331    0.4844 H   0  0  0  0  0  0  0  0  0  0  0  0
    1.2024    1.3047    0.9128 H   0  0  0  0  0  0  0  0  0  0  0  0
    0.6619    0.9527   -0.7344 H   0  0  0  0  0  0  0  0  0  0  0  0
   -2.1584    2.8618    0.9631 H   0  0  0  0  0  0  0  0  0  0  0  0
   -1.1380    2.8569   -0.4877 H   0  0  0  0  0  0  0  0  0  0  0  0
   -0.4229    3.1354    1.1071 H   0  0  0  0  0  0  0  0  0  0  0  0
   -1.8657   -1.6467    0.9546 H   0  0  0  0  0  0  0  0  0  0  0  0
   -0.9767   -3.6107    0.3172 H   0  0  0  0  0  0  0  0  0  0  0  0
   -2.7069   -5.2801   -0.7086 H   0  0  0  0  0  0  0  0  0  0  0  0
   -3.7422   -2.9353    0.9370 H   0  0  0  0  0  0  0  0  0  0  0  0
   -2.7781   -4.2765    1.5863 H   0  0  0  0  0  0  0  0  0  0  0  0
   -4.3721   -4.5795    0.8853 H   0  0  0  0  0  0  0  0  0  0  0  0
   -3.4537   -3.8917   -2.6807 H   0  0  0  0  0  0  0  0  0  0  0  0
   -4.0272   -2.6526   -1.5686 H   0  0  0  0  0  0  0  0  0  0  0  0
   -4.7641   -4.2578   -1.5694 H   0  0  0  0  0  0  0  0  0  0  0  0
   -1.6927   -5.4133   -2.8482 H   0  0  0  0  0  0  0  0  0  0  0  0
   -1.2910   -3.7711   -3.4471 H   0  0  0  0  0  0  0  0  0  0  0  0
   -0.0966   -5.0653   -3.5167 H   0  0  0  0  0  0  0  0  0  0  0  0
    2.4369   -4.3540    1.4886 H   0  0  0  0  0  0  0  0  0  0  0  0
    2.8723   -5.2216    0.0389 H   0  0  0  0  0  0  0  0  0  0  0  0
    3.6222   -2.3657    2.0806 H   0  0  0  0  0  0  0  0  0  0  0  0
    5.3475   -0.7295    1.5851 H   0  0  0  0  0  0  0  0  0  0  0  0
    5.4200   -2.0579   -2.5250 H   0  0  0  0  0  0  0  0  0  0  0  0
    3.6968   -3.7080   -2.0160 H   0  0  0  0  0  0  0  0  0  0  0  0
    6.8708   -0.4320   -1.8349 H   0  0  0  0  0  0  0  0  0  0  0  0
    8.7198    0.7147   -1.6685 H   0  0  0  0  0  0  0  0  0  0  0  0
    7.4915    3.2173   -0.3503 H   0  0  0  0  0  0  0  0  0  0  0  0
    6.7016    2.3194   -1.6288 H   0  0  0  0  0  0  0  0  0  0  0  0
    7.6606    3.8584   -2.9116 H   0  0  0  0  0  0  0  0  0  0  0  0
    8.9626    2.6846   -2.9903 H   0  0  0  0  0  0  0  0  0  0  0  0
    9.5346    5.1764   -2.6106 H   0  0  0  0  0  0  0  0  0  0  0  0
    8.8882    5.0263   -0.9781 H   0  0  0  0  0  0  0  0  0  0  0  0
   11.1054    3.2985   -1.9468 H   0  0  0  0  0  0  0  0  0  0  0  0
   12.9695    3.4742   -0.6047 H   0  0  0  0  0  0  0  0  0  0  0  0
   13.4805    5.0737   -0.4326 H   0  0  0  0  0  0  0  0  0  0  0  0
    9.3582    2.1400    0.8723 H   0  0  0  0  0  0  0  0  0  0  0  0
   11.7124    1.8899    1.4225 H   0  0  0  0  0  0  0  0  0  0  0  0
   11.8932    0.2971    3.4065 H   0  0  0  0  0  0  0  0  0  0  0  0
    9.0302    1.1913    2.8595 H   0  0  0  0  0  0  0  0  0  0  0  0
    9.8170    0.9499    4.4171 H   0  0  0  0  0  0  0  0  0  0  0  0
   10.3430    2.2707    3.3666 H   0  0  0  0  0  0  0  0  0  0  0  0
    9.5725   -1.2078    2.0946 H   0  0  0  0  0  0  0  0  0  0  0  0
   10.2386   -1.4740    3.7096 H   0  0  0  0  0  0  0  0  0  0  0  0
   11.2211   -1.8273    2.2886 H   0  0  0  0  0  0  0  0  0  0  0  0
   12.7139   -0.8513    0.8563 H   0  0  0  0  0  0  0  0  0  0  0  0
   14.5436   -0.8643   -0.7881 H   0  0  0  0  0  0  0  0  0  0  0  0
   15.2839   -0.5367    0.7962 H   0  0  0  0  0  0  0  0  0  0  0  0
   15.5936    1.2629   -1.6665 H   0  0  0  0  0  0  0  0  0  0  0  0
   16.3902    1.4930   -0.1249 H   0  0  0  0  0  0  0  0  0  0  0  0
   16.7828   -0.8243   -2.0883 H   0  0  0  0  0  0  0  0  0  0  0  0
   17.8892    0.5144   -1.8421 H   0  0  0  0  0  0  0  0  0  0  0  0
   18.6756   -1.5701   -0.7888 H   0  0  0  0  0  0  0  0  0  0  0  0
   17.2185   -1.6872    0.1785 H   0  0  0  0  0  0  0  0  0  0  0  0
   17.8525    0.4645    1.3627 H   0  0  0  0  0  0  0  0  0  0  0  0
   18.9902   -0.8716    1.5806 H   0  0  0  0  0  0  0  0  0  0  0  0
   22.7776    1.2637   -0.5785 H   0  0  0  0  0  0  0  0  0  0  0  0
   21.2078    3.4334   -0.5141 H   0  0  0  0  0  0  0  0  0  0  0  0
  1  2  1  0
  2  3  1  0
  3  4  1  0
  3  5  1  0
  5  6  1  0
  6  7  1  0
  7  8  1  0
  8  9  2  0
  8 10  1  0
 10 11  1  0
 11 12  1  0
 12 13  1  0
 13 14  1  0
 14 15  1  0
 15 16  1  0
 16 17  1  0
 16 18  1  0
 18 19  2  0
 18 20  1  0
 20 21  1  0
 21 22  1  0
 21 23  1  0
 23 24  1  0
 24 25  2  0
 25 26  1  0
 26 27  2  0
 27 28  1  0
 28 29  2  0
 23 30  1  0
 15 31  1  0
 31 32  1  0
  6 33  1  0
 33 34  1  0
  5 35  1  0
 35 36  1  0
 35 37  1  0
 37 38  2  0
 37 39  1  0
 39 40  1  0
 40 41  1  0
 40 42  1  0
 39 43  1  0
 43 44  1  0
 44 45  2  0
 44 46  1  0
 46 47  1  0
 47 48  1  0
 47 49  1  0
 46 50  1  0
 50 51  1  0
 50 52  1  0
 52 53  2  0
 52 54  1  0
 54 55  1  0
 55 56  1  0
 56 57  1  0
 57 58  2  0
 58 59  1  0
 59 60  2  0
 60 61  1  0
 59 62  1  0
 62 63  1  0
 63 64  2  0
 63 65  1  0
 65 66  1  0
 66 67  1  0
 67 68  1  0
 68 69  1  0
 69 70  1  0
 70 71  2  0
 70 72  1  0
 65 73  1  0
 73 74  1  0
 74 75  2  0
 74 76  1  0
 76 77  1  0
 77 78  1  0
 77 79  1  0
 76 80  1  0
 80 81  1  0
 81 82  2  0
 81 83  1  0
 83 84  1  0
 84 85  1  0
 85 86  1  0
 86 87  1  0
 87 88  1  0
 88 89  1  0
 89 90  2  0
 89 91  1  0
 91 92  2  0
 92 93  1  0
 93 94  2  0
 14 10  1  0
 29 24  1  0
 61 56  2  0
 93 88  1  0
  1 95  1  0
  1 96  1  0
  1 97  1  0
  2 98  1  0
  2 99  1  0
  3100  1  6
  4101  1  0
  4102  1  0
  4103  1  0
  5104  1  1
  6105  1  6
  7106  1  0
  7107  1  0
 11108  1  0
 11109  1  0
 12110  1  0
 12111  1  0
 13112  1  0
 13113  1  0
 14114  1  6
 15115  1  1
 16116  1  1
 17117  1  0
 17118  1  0
 17119  1  0
 20120  1  0
 21121  1  1
 22122  1  0
 22123  1  0
 22124  1  0
 23125  1  6
 25126  1  0
 26127  1  0
 27128  1  0
 28129  1  0
 29130  1  0
 30131  1  0
 32132  1  0
 32133  1  0
 32134  1  0
 34135  1  0
 34136  1  0
 34137  1  0
 36138  1  0
 36139  1  0
 36140  1  0
 39141  1  6
 40142  1  0
 41143  1  0
 41144  1  0
 41145  1  0
 42146  1  0
 42147  1  0
 42148  1  0
 43149  1  0
 46150  1  1
 47151  1  0
 48152  1  0
 48153  1  0
 48154  1  0
 49155  1  0
 49156  1  0
 49157  1  0
 51158  1  0
 51159  1  0
 51160  1  0
 55161  1  0
 55162  1  0
 57163  1  0
 58164  1  0
 60165  1  0
 61166  1  0
 62167  1  0
 65168  1  6
 66169  1  0
 66170  1  0
 67171  1  0
 67172  1  0
 68173  1  0
 68174  1  0
 69175  1  0
 72176  1  0
 72177  1  0
 73178  1  0
 76179  1  1
 77180  1  0
 78181  1  0
 78182  1  0
 78183  1  0
 79184  1  0
 79185  1  0
 79186  1  0
 80187  1  0
 83188  1  0
 83189  1  0
 84190  1  0
 84191  1  0
 85192  1  0
 85193  1  0
 86194  1  0
 86195  1  0
 87196  1  0
 87197  1  0
 91198  1  0
 92199  1  0
M  END
$$$$

     RDKit          3D

199202  0  0  0  0  0  0  0  0999 V2000
   -3.5785   -0.5040   -2.2914 C   0  0  0  0  0  0  0  0  0  0  0  0
   -3.7893   -1.7449   -1.4308 C   0  0  0  0  0  0  0  0  0  0  0  0
   -5.2648   -2.0492   -1.0637 C   0  0  2  0  0  0  0  0  0  0  0  0
   -6.1042   -2.1159   -2.3421 C   0  0  0  0  0  0  0  0  0  0  0  0
   -5.8186   -1.1038    0.0699 C   0  0  1  0  0  0  0  0  0  0  0  0
   -7.3879   -1.1191    0.2998 C   0  0  1  0  0  0  0  0  0  0  0  0
   -8.2495   -0.3428   -0.7036 C   0  0  0  0  0  0  0  0  0  0  0  0
   -7.9008    1.1144   -0.8708 C   0  0  0  0  0  0  0  0  0  0  0  0
   -7.0043    1.4334   -1.6541 O   0  0  0  0  0  0  0  0  0  0  0  0
   -8.6119    2.0602   -0.1591 N   0  0  0  0  0  0  0  0  0  0  0  0
   -8.2805    3.4709   -0.3418 C   0  0  0  0  0  0  0  0  0  0  0  0
   -9.0863    4.2244    0.7041 C   0  0  0  0  0  0  0  0  0  0  0  0
   -9.3245    3.1756    1.7773 C   0  0  0  0  0  0  0  0  0  0  0  0
   -9.5055    1.8649    0.9912 C   0  0  1  0  0  0  0  0  0  0  0  0
  -11.0174    1.5851    0.6799 C   0  0  1  0  0  0  0  0  0  0  0  0
  -11.5678    2.1034   -0.6697 C   0  0  1  0  0  0  0  0  0  0  0  0
  -11.2495    1.2656   -1.9096 C   0  0  0  0  0  0  0  0  0  0  0  0
  -13.0818    2.2382   -0.5340 C   0  0  0  0  0  0  0  0  0  0  0  0
  -13.6381    3.3320   -0.5091 O   0  0  0  0  0  0  0  0  0  0  0  0
  -13.7669    1.0544   -0.4247 N   0  0  0  0  0  0  0  0  0  0  0  0
  -15.2167    0.9549   -0.1578 C   0  0  2  0  0  0  0  0  0  0  0  0
  -15.5143   -0.5059    0.1996 C   0  0  0  0  0  0  0  0  0  0  0  0
  -16.0734    1.4798   -1.3601 C   0  0  1  0  0  0  0  0  0  0  0  0
  -17.5253    1.0485   -1.3253 C   0  0  0  0  0  0  0  0  0  0  0  0
  -18.0067    0.1044   -2.2451 C   0  0  0  0  0  0  0  0  0  0  0  0
  -19.3393   -0.3097   -2.2051 C   0  0  0  0  0  0  0  0  0  0  0  0
  -20.2056    0.2132   -1.2472 C   0  0  0  0  0  0  0  0  0  0  0  0
  -19.7428    1.1538   -0.3306 C   0  0  0  0  0  0  0  0  0  0  0  0
  -18.4116    1.5708   -0.3688 C   0  0  0  0  0  0  0  0  0  0  0  0
  -16.0886    2.9117   -1.4032 O   0  0  0  0  0  0  0  0  0  0  0  0
  -11.2905    0.1658    0.7737 O   0  0  0  0  0  0  0  0  0  0  0  0
  -11.5833   -0.2564    2.1050 C   0  0  0  0  0  0  0  0  0  0  0  0
   -7.8242   -2.4962    0.3281 O   0  0  0  0  0  0  0  0  0  0  0  0
   -9.0763   -2.7129    0.9620 C   0  0  0  0  0  0  0  0  0  0  0  0
   -5.1250   -1.4483    1.3833 N   0  0  0  0  0  0  0  0  0  0  0  0
   -5.5505   -2.6770    2.0615 C   0  0  0  0  0  0  0  0  0  0  0  0
   -4.1237   -0.7317    2.0325 C   0  0  0  0  0  0  0  0  0  0  0  0
   -3.6858   -1.1078    3.1338 O   0  0  0  0  0  0  0  0  0  0  0  0
   -3.4965    0.5382    1.4163 C   0  0  1  0  0  0  0  0  0  0  0  0
   -4.0407    1.8577    2.0184 C   0  0  0  0  0  0  0  0  0  0  0  0
   -5.4817    2.1229    1.6062 C   0  0  0  0  0  0  0  0  0  0  0  0
   -3.9173    1.9515    3.5442 C   0  0  0  0  0  0  0  0  0  0  0  0
   -2.0659    0.4007    1.7240 N   0  0  0  0  0  0  0  0  0  0  0  0
   -1.0680    1.0732    1.0546 C   0  0  0  0  0  0  0  0  0  0  0  0
   -1.2944    1.7433    0.0498 O   0  0  0  0  0  0  0  0  0  0  0  0
    0.3263    0.9531    1.7305 C   0  0  1  0  0  0  0  0  0  0  0  0
    0.8329   -0.4992    1.9628 C   0  0  0  0  0  0  0  0  0  0  0  0
    0.8443   -1.4232    0.7462 C   0  0  0  0  0  0  0  0  0  0  0  0
    2.1960   -0.5273    2.6619 C   0  0  0  0  0  0  0  0  0  0  0  0
    1.2939    1.9469    1.2255 N   0  0  0  0  0  0  0  0  0  0  0  0
    1.5409    3.1006    2.0749 C   0  0  0  0  0  0  0  0  0  0  0  0
    1.8259    1.9646   -0.0543 C   0  0  0  0  0  0  0  0  0  0  0  0
    2.5578    2.8614   -0.4649 O   0  0  0  0  0  0  0  0  0  0  0  0
    1.4680    0.8918   -0.7996 O   0  0  0  0  0  0  0  0  0  0  0  0
    2.0072    0.8480   -2.1278 C   0  0  0  0  0  0  0  0  0  0  0  0
    3.2892    0.0482   -2.1443 C   0  0  0  0  0  0  0  0  0  0  0  0
    3.2804   -1.3297   -2.3839 C   0  0  0  0  0  0  0  0  0  0  0  0
    4.4706   -2.0668   -2.3433 C   0  0  0  0  0  0  0  0  0  0  0  0
    5.6908   -1.4441   -2.0526 C   0  0  0  0  0  0  0  0  0  0  0  0
    5.7011   -0.0691   -1.8251 C   0  0  0  0  0  0  0  0  0  0  0  0
    4.5129    0.6686   -1.8703 C   0  0  0  0  0  0  0  0  0  0  0  0
    6.8384   -2.2637   -1.9885 N   0  0  0  0  0  0  0  0  0  0  0  0
    8.1211   -1.8811   -1.6310 C   0  0  0  0  0  0  0  0  0  0  0  0
    8.5017   -0.7390   -1.3764 O   0  0  0  0  0  0  0  0  0  0  0  0
    9.1204   -3.0580   -1.5976 C   0  0  1  0  0  0  0  0  0  0  0  0
    9.5494   -3.4980   -3.0062 C   0  0  0  0  0  0  0  0  0  0  0  0
   10.0494   -2.3913   -3.9501 C   0  0  0  0  0  0  0  0  0  0  0  0
   11.3826   -1.7568   -3.5652 C   0  0  0  0  0  0  0  0  0  0  0  0
   12.4710   -2.7100   -3.6473 N   0  0  0  0  0  0  0  0  0  0  0  0
   13.5313   -2.6506   -2.7965 C   0  0  0  0  0  0  0  0  0  0  0  0
   13.6341   -1.9249   -1.8203 O   0  0  0  0  0  0  0  0  0  0  0  0
   14.4999   -3.5420   -3.1260 N   0  0  0  0  0  0  0  0  0  0  0  0
   10.2324   -2.6881   -0.7394 N   0  0  0  0  0  0  0  0  0  0  0  0
   10.9487   -3.6134   -0.0079 C   0  0  0  0  0  0  0  0  0  0  0  0
   10.7706   -4.8207   -0.1476 O   0  0  0  0  0  0  0  0  0  0  0  0
   11.8280   -2.9800    1.1014 C   0  0  1  0  0  0  0  0  0  0  0  0
   12.9112   -3.8975    1.7099 C   0  0  0  0  0  0  0  0  0  0  0  0
   13.8973   -4.4493    0.6760 C   0  0  0  0  0  0  0  0  0  0  0  0
   12.3087   -5.0375    2.5368 C   0  0  0  0  0  0  0  0  0  0  0  0
   12.4198   -1.7313    0.6158 N   0  0  0  0  0  0  0  0  0  0  0  0
   12.2939   -0.5292    1.2684 C   0  0  0  0  0  0  0  0  0  0  0  0
   11.6239   -0.3845    2.2848 O   0  0  0  0  0  0  0  0  0  0  0  0
   13.0901    0.5852    0.6136 C   0  0  0  0  0  0  0  0  0  0  0  0
   12.8314    1.9439    1.2649 C   0  0  0  0  0  0  0  0  0  0  0  0
   13.7469    3.0512    0.7332 C   0  0  0  0  0  0  0  0  0  0  0  0
   15.1757    2.9413    1.2698 C   0  0  0  0  0  0  0  0  0  0  0  0
   16.0544    4.0921    0.7733 C   0  0  0  0  0  0  0  0  0  0  0  0
   17.4062    3.9809    1.2859 N   0  0  0  0  0  0  0  0  0  0  0  0
   17.8441    4.5362    2.4427 C   0  0  0  0  0  0  0  0  0  0  0  0
   17.2462    5.2457    3.2297 O   0  0  0  0  0  0  0  0  0  0  0  0
   19.2382    4.1169    2.6215 C   0  0  0  0  0  0  0  0  0  0  0  0
   19.5571    3.3207    1.6012 C   0  0  0  0  0  0  0  0  0  0  0  0
   18.3765    3.2081    0.7379 C   0  0  0  0  0  0  0  0  0  0  0  0
   18.3366    2.5199   -0.2653 O   0  0  0  0  0  0  0  0  0  0  0  0
   -4.0641    0.3802   -1.8696 H   0  0  0  0  0  0  0  0  0  0  0  0
   -3.9678   -0.6524   -3.3042 H   0  0  0  0  0  0  0  0  0  0  0  0
   -2.5081   -0.2910   -2.3829 H   0  0  0  0  0  0  0  0  0  0  0  0
   -3.3835   -2.6040   -1.9810 H   0  0  0  0  0  0  0  0  0  0  0  0
   -3.1812   -1.6681   -0.5243 H   0  0  0  0  0  0  0  0  0  0  0  0
   -5.2561   -3.0733   -0.6703 H   0  0  0  0  0  0  0  0  0  0  0  0
   -5.5976   -2.7190   -3.1050 H   0  0  0  0  0  0  0  0  0  0  0  0
   -6.2785   -1.1237   -2.7672 H   0  0  0  0  0  0  0  0  0  0  0  0
   -7.0674   -2.6016   -2.1625 H   0  0  0  0  0  0  0  0  0  0  0  0
   -5.5388   -0.0799   -0.1689 H   0  0  0  0  0  0  0  0  0  0  0  0
   -7.5606   -0.6841    1.2925 H   0  0  0  0  0  0  0  0  0  0  0  0
   -8.2381   -0.8022   -1.6943 H   0  0  0  0  0  0  0  0  0  0  0  0
   -9.2977   -0.4196   -0.4240 H   0  0  0  0  0  0  0  0  0  0  0  0
   -7.2070    3.6134   -0.1898 H   0  0  0  0  0  0  0  0  0  0  0  0
   -8.5286    3.7802   -1.3617 H   0  0  0  0  0  0  0  0  0  0  0  0
  -10.0378    4.5686    0.2887 H   0  0  0  0  0  0  0  0  0  0  0  0
   -8.5558    5.1029    1.0824 H   0  0  0  0  0  0  0  0  0  0  0  0
  -10.1618    3.4244    2.4354 H   0  0  0  0  0  0  0  0  0  0  0  0
   -8.4284    3.0996    2.4072 H   0  0  0  0  0  0  0  0  0  0  0  0
   -9.1068    1.0402    1.5899 H   0  0  0  0  0  0  0  0  0  0  0  0
  -11.6065    2.0677    1.4724 H   0  0  0  0  0  0  0  0  0  0  0  0
  -11.2092    3.1207   -0.8536 H   0  0  0  0  0  0  0  0  0  0  0  0
  -11.8881    1.5631   -2.7501 H   0  0  0  0  0  0  0  0  0  0  0  0
  -10.2174    1.4126   -2.2337 H   0  0  0  0  0  0  0  0  0  0  0  0
  -11.4084    0.1952   -1.7480 H   0  0  0  0  0  0  0  0  0  0  0  0
  -13.1979    0.2297   -0.2500 H   0  0  0  0  0  0  0  0  0  0  0  0
  -15.4070    1.5841    0.7209 H   0  0  0  0  0  0  0  0  0  0  0  0
  -15.3417   -1.1658   -0.6583 H   0  0  0  0  0  0  0  0  0  0  0  0
  -14.8587   -0.8457    1.0103 H   0  0  0  0  0  0  0  0  0  0  0  0
  -16.5435   -0.6414    0.5441 H   0  0  0  0  0  0  0  0  0  0  0  0
  -15.6139    1.1479   -2.2997 H   0  0  0  0  0  0  0  0  0  0  0  0
  -17.3471   -0.3099   -3.0047 H   0  0  0  0  0  0  0  0  0  0  0  0
  -19.7035   -1.0347   -2.9276 H   0  0  0  0  0  0  0  0  0  0  0  0
  -21.2447   -0.1040   -1.2227 H   0  0  0  0  0  0  0  0  0  0  0  0
  -20.4206    1.5741    0.4077 H   0  0  0  0  0  0  0  0  0  0  0  0
  -18.0663    2.3208    0.3393 H   0  0  0  0  0  0  0  0  0  0  0  0
  -15.1916    3.2249   -1.1655 H   0  0  0  0  0  0  0  0  0  0  0  0
  -12.4968    0.2280    2.4634 H   0  0  0  0  0  0  0  0  0  0  0  0
  -11.7493   -1.3370    2.0904 H   0  0  0  0  0  0  0  0  0  0  0  0
  -10.7511   -0.0383    2.7792 H   0  0  0  0  0  0  0  0  0  0  0  0
   -9.8962   -2.3643    0.3308 H   0  0  0  0  0  0  0  0  0  0  0  0
   -9.2010   -3.7900    1.1050 H   0  0  0  0  0  0  0  0  0  0  0  0
   -9.1079   -2.2282    1.9417 H   0  0  0  0  0  0  0  0  0  0  0  0
   -4.7751   -3.0639    2.7294 H   0  0  0  0  0  0  0  0  0  0  0  0
   -5.7697   -3.4677    1.3423 H   0  0  0  0  0  0  0  0  0  0  0  0
   -6.4387   -2.4539    2.6601 H   0  0  0  0  0  0  0  0  0  0  0  0
   -3.5913    0.5511    0.3322 H   0  0  0  0  0  0  0  0  0  0  0  0
   -3.4373    2.6792    1.6075 H   0  0  0  0  0  0  0  0  0  0  0  0
   -6.1637    1.3596    1.9919 H   0  0  0  0  0  0  0  0  0  0  0  0
   -5.8201    3.0947    1.9817 H   0  0  0  0  0  0  0  0  0  0  0  0
   -5.5555    2.1477    0.5171 H   0  0  0  0  0  0  0  0  0  0  0  0
   -4.5525    1.2187    4.0500 H   0  0  0  0  0  0  0  0  0  0  0  0
   -2.8844    1.8016    3.8728 H   0  0  0  0  0  0  0  0  0  0  0  0
   -4.2249    2.9452    3.8901 H   0  0  0  0  0  0  0  0  0  0  0  0
   -1.8636   -0.0834    2.5940 H   0  0  0  0  0  0  0  0  0  0  0  0
    0.1136    1.3060    2.7538 H   0  0  0  0  0  0  0  0  0  0  0  0
    0.1223   -0.9627    2.6622 H   0  0  0  0  0  0  0  0  0  0  0  0
    0.8380   -2.4706    1.0744 H   0  0  0  0  0  0  0  0  0  0  0  0
    1.7496   -1.2974    0.1505 H   0  0  0  0  0  0  0  0  0  0  0  0
   -0.0321   -1.2794    0.1074 H   0  0  0  0  0  0  0  0  0  0  0  0
    2.1709    0.0614    3.5856 H   0  0  0  0  0  0  0  0  0  0  0  0
    2.4697   -1.5538    2.9307 H   0  0  0  0  0  0  0  0  0  0  0  0
    2.9870   -0.1275    2.0188 H   0  0  0  0  0  0  0  0  0  0  0  0
    1.9269    2.7536    3.0381 H   0  0  0  0  0  0  0  0  0  0  0  0
    0.5951    3.6288    2.2312 H   0  0  0  0  0  0  0  0  0  0  0  0
    2.2607    3.7978    1.6419 H   0  0  0  0  0  0  0  0  0  0  0  0
    1.2590    0.3596   -2.7633 H   0  0  0  0  0  0  0  0  0  0  0  0
    2.1556    1.8463   -2.5584 H   0  0  0  0  0  0  0  0  0  0  0  0
    2.3422   -1.8432   -2.5864 H   0  0  0  0  0  0  0  0  0  0  0  0
    4.4188   -3.1371   -2.5253 H   0  0  0  0  0  0  0  0  0  0  0  0
    6.6142    0.4700   -1.5957 H   0  0  0  0  0  0  0  0  0  0  0  0
    4.5535    1.7393   -1.6706 H   0  0  0  0  0  0  0  0  0  0  0  0
    6.6799   -3.2515   -2.1451 H   0  0  0  0  0  0  0  0  0  0  0  0
    8.6135   -3.9024   -1.1115 H   0  0  0  0  0  0  0  0  0  0  0  0
   10.3082   -4.2858   -2.9309 H   0  0  0  0  0  0  0  0  0  0  0  0
    8.6802   -3.9606   -3.4929 H   0  0  0  0  0  0  0  0  0  0  0  0
   10.1486   -2.8292   -4.9529 H   0  0  0  0  0  0  0  0  0  0  0  0
    9.2903   -1.6063   -4.0362 H   0  0  0  0  0  0  0  0  0  0  0  0
   11.6202   -0.9587   -4.2786 H   0  0  0  0  0  0  0  0  0  0  0  0
   11.3440   -1.2904   -2.5775 H   0  0  0  0  0  0  0  0  0  0  0  0
   12.6965   -3.0622   -4.5669 H   0  0  0  0  0  0  0  0  0  0  0  0
   15.2358   -3.5986   -2.4323 H   0  0  0  0  0  0  0  0  0  0  0  0
   14.1759   -4.4420   -3.4524 H   0  0  0  0  0  0  0  0  0  0  0  0
   10.3015   -1.7120   -0.4547 H   0  0  0  0  0  0  0  0  0  0  0  0
   11.1242   -2.7212    1.9031 H   0  0  0  0  0  0  0  0  0  0  0  0
   13.4985   -3.2874    2.4116 H   0  0  0  0  0  0  0  0  0  0  0  0
   14.4409   -3.6385    0.1819 H   0  0  0  0  0  0  0  0  0  0  0  0
   14.6435   -5.0898    1.1601 H   0  0  0  0  0  0  0  0  0  0  0  0
   13.3976   -5.0449   -0.0926 H   0  0  0  0  0  0  0  0  0  0  0  0
   11.6018   -4.6504    3.2779 H   0  0  0  0  0  0  0  0  0  0  0  0
   11.7863   -5.7705    1.9157 H   0  0  0  0  0  0  0  0  0  0  0  0
   13.0969   -5.5715    3.0797 H   0  0  0  0  0  0  0  0  0  0  0  0
   12.9531   -1.7630   -0.2588 H   0  0  0  0  0  0  0  0  0  0  0  0
   14.1477    0.3132    0.6902 H   0  0  0  0  0  0  0  0  0  0  0  0
   12.8238    0.6300   -0.4490 H   0  0  0  0  0  0  0  0  0  0  0  0
   11.7890    2.2279    1.0727 H   0  0  0  0  0  0  0  0  0  0  0  0
   12.9351    1.8746    2.3548 H   0  0  0  0  0  0  0  0  0  0  0  0
   13.3298    4.0188    1.0386 H   0  0  0  0  0  0  0  0  0  0  0  0
   13.7520    3.0388   -0.3638 H   0  0  0  0  0  0  0  0  0  0  0  0
   15.1577    2.9436    2.3676 H   0  0  0  0  0  0  0  0  0  0  0  0
   15.6239    1.9886    0.9653 H   0  0  0  0  0  0  0  0  0  0  0  0
   16.0993    4.0823   -0.3215 H   0  0  0  0  0  0  0  0  0  0  0  0
   15.6357    5.0519    1.0963 H   0  0  0  0  0  0  0  0  0  0  0  0
   19.8474    4.4199    3.4543 H   0  0  0  0  0  0  0  0  0  0  0  0
   20.4878    2.8203    1.4035 H   0  0  0  0  0  0  0  0  0  0  0  0
  1  2  1  0
  2  3  1  0
  3  4  1  0
  3  5  1  0
  5  6  1  0
  6  7  1  0
  7  8  1  0
  8  9  2  0
  8 10  1  0
 10 11  1  0
 11 12  1  0
 12 13  1  0
 13 14  1  0
 14 15  1  0
 15 16  1  0
 16 17  1  0
 16 18  1  0
 18 19  2  0
 18 20  1  0
 20 21  1  0
 21 22  1  0
 21 23  1  0
 23 24  1  0
 24 25  2  0
 25 26  1  0
 26 27  2  0
 27 28  1  0
 28 29  2  0
 23 30  1  0
 15 31  1  0
 31 32  1  0
  6 33  1  0
 33 34  1  0
  5 35  1  0
 35 36  1  0
 35 37  1  0
 37 38  2  0
 37 39  1  0
 39 40  1  0
 40 41  1  0
 40 42  1  0
 39 43  1  0
 43 44  1  0
 44 45  2  0
 44 46  1  0
 46 47  1  0
 47 48  1  0
 47 49  1  0
 46 50  1  0
 50 51  1  0
 50 52  1  0
 52 53  2  0
 52 54  1  0
 54 55  1  0
 55 56  1  0
 56 57  1  0
 57 58  2  0
 58 59  1  0
 59 60  2  0
 60 61  1  0
 59 62  1  0
 62 63  1  0
 63 64  2  0
 63 65  1  0
 65 66  1  0
 66 67  1  0
 67 68  1  0
 68 69  1  0
 69 70  1  0
 70 71  2  0
 70 72  1  0
 65 73  1  0
 73 74  1  0
 74 75  2  0
 74 76  1  0
 76 77  1  0
 77 78  1  0
 77 79  1  0
 76 80  1  0
 80 81  1  0
 81 82  2  0
 81 83  1  0
 83 84  1  0
 84 85  1  0
 85 86  1  0
 86 87  1  0
 87 88  1  0
 88 89  1  0
 89 90  2  0
 89 91  1  0
 91 92  2  0
 92 93  1  0
 93 94  2  0
 14 10  1  0
 29 24  1  0
 61 56  2  0
 93 88  1  0
  1 95  1  0
  1 96  1  0
  1 97  1  0
  2 98  1  0
  2 99  1  0
  3100  1  1
  4101  1  0
  4102  1  0
  4103  1  0
  5104  1  6
  6105  1  1
  7106  1  0
  7107  1  0
 11108  1  0
 11109  1  0
 12110  1  0
 12111  1  0
 13112  1  0
 13113  1  0
 14114  1  1
 15115  1  1
 16116  1  6
 17117  1  0
 17118  1  0
 17119  1  0
 20120  1  0
 21121  1  1
 22122  1  0
 22123  1  0
 22124  1  0
 23125  1  6
 25126  1  0
 26127  1  0
 27128  1  0
 28129  1  0
 29130  1  0
 30131  1  0
 32132  1  0
 32133  1  0
 32134  1  0
 34135  1  0
 34136  1  0
 34137  1  0
 36138  1  0
 36139  1  0
 36140  1  0
 39141  1  6
 40142  1  0
 41143  1  0
 41144  1  0
 41145  1  0
 42146  1  0
 42147  1  0
 42148  1  0
 43149  1  0
 46150  1  1
 47151  1  0
 48152  1  0
 48153  1  0
 48154  1  0
 49155  1  0
 49156  1  0
 49157  1  0
 51158  1  0
 51159  1  0
 51160  1  0
 55161  1  0
 55162  1  0
 57163  1  0
 58164  1  0
 60165  1  0
 61166  1  0
 62167  1  0
 65168  1  1
 66169  1  0
 66170  1  0
 67171  1  0
 67172  1  0
 68173  1  0
 68174  1  0
 69175  1  0
 72176  1  0
 72177  1  0
 73178  1  0
 76179  1  1
 77180  1  0
 78181  1  0
 78182  1  0
 78183  1  0
 79184  1  0
 79185  1  0
 79186  1  0
 80187  1  0
 83188  1  0
 83189  1  0
 84190  1  0
 84191  1  0
 85192  1  0
 85193  1  0
 86194  1  0
 86195  1  0
 87196  1  0
 87197  1  0
 91198  1  0
 92199  1  0
M  END
$$$$

     RDKit          3D

199202  0  0  0  0  0  0  0  0999 V2000
   -4.3433    3.3952    2.4897 C   0  0  0  0  0  0  0  0  0  0  0  0
   -4.4529    2.3325    3.5700 C   0  0  0  0  0  0  0  0  0  0  0  0
   -5.8869    1.9922    4.0284 C   0  0  2  0  0  0  0  0  0  0  0  0
   -5.7856    1.3521    5.4267 C   0  0  0  0  0  0  0  0  0  0  0  0
   -6.7887    1.0987    3.0985 C   0  0  1  0  0  0  0  0  0  0  0  0
   -7.4644    1.8544    1.8953 C   0  0  1  0  0  0  0  0  0  0  0  0
   -8.3270    0.8944    1.0566 C   0  0  0  0  0  0  0  0  0  0  0  0
   -8.6795    1.4412   -0.3175 C   0  0  0  0  0  0  0  0  0  0  0  0
   -8.2857    2.5315   -0.7240 O   0  0  0  0  0  0  0  0  0  0  0  0
   -9.4911    0.6265   -1.0982 N   0  0  0  0  0  0  0  0  0  0  0  0
   -9.7154   -0.7950   -0.8600 C   0  0  0  0  0  0  0  0  0  0  0  0
  -10.3218   -1.3297   -2.1483 C   0  0  0  0  0  0  0  0  0  0  0  0
   -9.7788   -0.3698   -3.1978 C   0  0  0  0  0  0  0  0  0  0  0  0
   -9.8284    0.9959   -2.4820 C   0  0  1  0  0  0  0  0  0  0  0  0
  -11.2379    1.6606   -2.6017 C   0  0  1  0  0  0  0  0  0  0  0  0
  -11.3060    3.0598   -1.9388 C   0  0  1  0  0  0  0  0  0  0  0  0
  -10.8746    4.1985   -2.8589 C   0  0  0  0  0  0  0  0  0  0  0  0
  -12.7079    3.2934   -1.3881 C   0  0  0  0  0  0  0  0  0  0  0  0
  -13.5656    3.9565   -1.9611 O   0  0  0  0  0  0  0  0  0  0  0  0
  -12.9609    2.6425   -0.1947 N   0  0  0  0  0  0  0  0  0  0  0  0
  -14.2762    2.6976    0.4421 C   0  0  2  0  0  0  0  0  0  0  0  0
  -14.1332    2.6335    1.9632 C   0  0  0  0  0  0  0  0  0  0  0  0
  -15.2763    1.6584   -0.1524 C   0  0  1  0  0  0  0  0  0  0  0  0
  -14.9788    0.2161    0.2181 C   0  0  0  0  0  0  0  0  0  0  0  0
  -15.4593   -0.3486    1.4109 C   0  0  0  0  0  0  0  0  0  0  0  0
  -15.1498   -1.6629    1.7614 C   0  0  0  0  0  0  0  0  0  0  0  0
  -14.3562   -2.4425    0.9196 C   0  0  0  0  0  0  0  0  0  0  0  0
  -13.8905   -1.9072   -0.2794 C   0  0  0  0  0  0  0  0  0  0  0  0
  -14.1994   -0.5900   -0.6280 C   0  0  0  0  0  0  0  0  0  0  0  0
  -16.6143    1.9772    0.2469 O   0  0  0  0  0  0  0  0  0  0  0  0
  -11.5472    1.7233   -4.0064 O   0  0  0  0  0  0  0  0  0  0  0  0
  -12.9307    1.5882   -4.3060 C   0  0  0  0  0  0  0  0  0  0  0  0
   -8.3810    2.8198    2.4703 O   0  0  0  0  0  0  0  0  0  0  0  0
   -8.0999    4.1602    2.0875 C   0  0  0  0  0  0  0  0  0  0  0  0
   -6.2082   -0.2337    2.7685 N   0  0  0  0  0  0  0  0  0  0  0  0
   -6.7654   -1.3643    3.5126 C   0  0  0  0  0  0  0  0  0  0  0  0
   -5.2436   -0.3547    1.7691 C   0  0  0  0  0  0  0  0  0  0  0  0
   -4.8626    0.6182    1.1112 O   0  0  0  0  0  0  0  0  0  0  0  0
   -4.6910   -1.7569    1.4105 C   0  0  1  0  0  0  0  0  0  0  0  0
   -5.6660   -2.4733    0.4395 C   0  0  0  0  0  0  0  0  0  0  0  0
   -5.6489   -1.8941   -0.9791 C   0  0  0  0  0  0  0  0  0  0  0  0
   -5.4139   -3.9820    0.3802 C   0  0  0  0  0  0  0  0  0  0  0  0
   -3.3422   -1.5992    0.8650 N   0  0  0  0  0  0  0  0  0  0  0  0
   -2.3356   -2.5104    1.0944 C   0  0  0  0  0  0  0  0  0  0  0  0
   -2.5437   -3.5424    1.7371 O   0  0  0  0  0  0  0  0  0  0  0  0
   -0.9121   -2.0495    0.6729 C   0  0  1  0  0  0  0  0  0  0  0  0
    0.0996   -3.2008    0.4104 C   0  0  0  0  0  0  0  0  0  0  0  0
    0.5876   -3.8390    1.7192 C   0  0  0  0  0  0  0  0  0  0  0  0
   -0.4152   -4.2920   -0.5360 C   0  0  0  0  0  0  0  0  0  0  0  0
   -0.8725   -1.0143   -0.3921 N   0  0  0  0  0  0  0  0  0  0  0  0
   -1.5002   -1.2786   -1.6742 C   0  0  0  0  0  0  0  0  0  0  0  0
    0.1305   -0.0408   -0.4036 C   0  0  0  0  0  0  0  0  0  0  0  0
    0.3280    0.7163   -1.3455 O   0  0  0  0  0  0  0  0  0  0  0  0
    0.8761   -0.0473    0.7359 O   0  0  0  0  0  0  0  0  0  0  0  0
    1.9885    0.8584    0.7733 C   0  0  0  0  0  0  0  0  0  0  0  0
    3.2598    0.1770    0.3199 C   0  0  0  0  0  0  0  0  0  0  0  0
    4.1565    0.8444   -0.5236 C   0  0  0  0  0  0  0  0  0  0  0  0
    5.3538    0.2368   -0.9219 C   0  0  0  0  0  0  0  0  0  0  0  0
    5.6792   -1.0492   -0.4871 C   0  0  0  0  0  0  0  0  0  0  0  0
    4.7865   -1.7176    0.3585 C   0  0  0  0  0  0  0  0  0  0  0  0
    3.5962   -1.1062    0.7684 C   0  0  0  0  0  0  0  0  0  0  0  0
    6.8501   -1.7372   -0.8739 N   0  0  0  0  0  0  0  0  0  0  0  0
    7.9538   -1.2083   -1.5291 C   0  0  0  0  0  0  0  0  0  0  0  0
    8.1294   -0.0193   -1.7961 O   0  0  0  0  0  0  0  0  0  0  0  0
    8.9514   -2.3036   -1.9947 C   0  0  1  0  0  0  0  0  0  0  0  0
    8.5425   -2.8724   -3.3684 C   0  0  0  0  0  0  0  0  0  0  0  0
    8.1134   -1.8655   -4.4499 C   0  0  0  0  0  0  0  0  0  0  0  0
    9.1740   -0.8796   -4.9417 C   0  0  0  0  0  0  0  0  0  0  0  0
   10.1253   -1.4956   -5.8501 N   0  0  0  0  0  0  0  0  0  0  0  0
   11.3305   -1.9639   -5.4313 C   0  0  0  0  0  0  0  0  0  0  0  0
   11.7037   -2.0311   -4.2696 O   0  0  0  0  0  0  0  0  0  0  0  0
   12.1132   -2.3691   -6.4632 N   0  0  0  0  0  0  0  0  0  0  0  0
   10.3113   -1.7989   -1.9854 N   0  0  0  0  0  0  0  0  0  0  0  0
   10.9961   -1.6127   -0.8109 C   0  0  0  0  0  0  0  0  0  0  0  0
   10.4950   -1.8470    0.2932 O   0  0  0  0  0  0  0  0  0  0  0  0
   12.4395   -1.0825   -0.9769 C   0  0  1  0  0  0  0  0  0  0  0  0
   12.4613    0.3358   -1.5957 C   0  0  0  0  0  0  0  0  0  0  0  0
   13.8605    0.7182   -2.0826 C   0  0  0  0  0  0  0  0  0  0  0  0
   11.9204    1.4124   -0.6465 C   0  0  0  0  0  0  0  0  0  0  0  0
   13.0638   -1.1449    0.3416 N   0  0  0  0  0  0  0  0  0  0  0  0
   14.3530   -1.5731    0.5379 C   0  0  0  0  0  0  0  0  0  0  0  0
   15.1250   -1.8469   -0.3742 O   0  0  0  0  0  0  0  0  0  0  0  0
   14.7333   -1.6885    2.0041 C   0  0  0  0  0  0  0  0  0  0  0  0
   16.1519   -1.1884    2.2739 C   0  0  0  0  0  0  0  0  0  0  0  0
   16.2704    0.3230    2.0512 C   0  0  0  0  0  0  0  0  0  0  0  0
   17.6689    0.8384    2.3880 C   0  0  0  0  0  0  0  0  0  0  0  0
   17.7556    2.3465    2.1533 C   0  0  0  0  0  0  0  0  0  0  0  0
   19.0305    2.8844    2.5790 N   0  0  0  0  0  0  0  0  0  0  0  0
   20.1195    3.0232    1.7850 C   0  0  0  0  0  0  0  0  0  0  0  0
   20.2509    2.7556    0.6055 O   0  0  0  0  0  0  0  0  0  0  0  0
   21.1905    3.5795    2.6199 C   0  0  0  0  0  0  0  0  0  0  0  0
   20.7085    3.7290    3.8535 C   0  0  0  0  0  0  0  0  0  0  0  0
   19.3169    3.2666    3.8511 C   0  0  0  0  0  0  0  0  0  0  0  0
   18.6054    3.2460    4.8373 O   0  0  0  0  0  0  0  0  0  0  0  0
   -4.8204    4.3263    2.8091 H   0  0  0  0  0  0  0  0  0  0  0  0
   -4.7822    3.0887    1.5416 H   0  0  0  0  0  0  0  0  0  0  0  0
   -3.2877    3.6186    2.2973 H   0  0  0  0  0  0  0  0  0  0  0  0
   -3.8970    2.7242    4.4336 H   0  0  0  0  0  0  0  0  0  0  0  0
   -3.9110    1.4294    3.2728 H   0  0  0  0  0  0  0  0  0  0  0  0
   -6.4150    2.9403    4.1838 H   0  0  0  0  0  0  0  0  0  0  0  0
   -6.7724    1.0934    5.8218 H   0  0  0  0  0  0  0  0  0  0  0  0
   -5.3272    2.0452    6.1390 H   0  0  0  0  0  0  0  0  0  0  0  0
   -5.1713    0.4461    5.4060 H   0  0  0  0  0  0  0  0  0  0  0  0
   -7.6522    0.8616    3.7387 H   0  0  0  0  0  0  0  0  0  0  0  0
   -6.7198    2.3453    1.2685 H   0  0  0  0  0  0  0  0  0  0  0  0
   -7.7899   -0.0396    0.8761 H   0  0  0  0  0  0  0  0  0  0  0  0
   -9.2635    0.6681    1.5825 H   0  0  0  0  0  0  0  0  0  0  0  0
   -8.7540   -1.2810   -0.6595 H   0  0  0  0  0  0  0  0  0  0  0  0
  -10.3726   -0.9313    0.0036 H   0  0  0  0  0  0  0  0  0  0  0  0
  -10.0437   -2.3697   -2.3392 H   0  0  0  0  0  0  0  0  0  0  0  0
  -11.4128   -1.2735   -2.1136 H   0  0  0  0  0  0  0  0  0  0  0  0
   -8.7362   -0.6295   -3.4189 H   0  0  0  0  0  0  0  0  0  0  0  0
  -10.3360   -0.4136   -4.1360 H   0  0  0  0  0  0  0  0  0  0  0  0
   -9.0698    1.6581   -2.9145 H   0  0  0  0  0  0  0  0  0  0  0  0
  -11.9520    0.9887   -2.1126 H   0  0  0  0  0  0  0  0  0  0  0  0
  -10.6587    3.0916   -1.0577 H   0  0  0  0  0  0  0  0  0  0  0  0
   -9.8495    4.0471   -3.2126 H   0  0  0  0  0  0  0  0  0  0  0  0
  -10.9087    5.1546   -2.3243 H   0  0  0  0  0  0  0  0  0  0  0  0
  -11.5286    4.2948   -3.7318 H   0  0  0  0  0  0  0  0  0  0  0  0
  -12.2601    2.0273    0.2021 H   0  0  0  0  0  0  0  0  0  0  0  0
  -14.6950    3.6900    0.2241 H   0  0  0  0  0  0  0  0  0  0  0  0
  -13.5401    3.4821    2.3253 H   0  0  0  0  0  0  0  0  0  0  0  0
  -13.6170    1.7233    2.2874 H   0  0  0  0  0  0  0  0  0  0  0  0
  -15.1089    2.6770    2.4564 H   0  0  0  0  0  0  0  0  0  0  0  0
  -15.2660    1.7325   -1.2479 H   0  0  0  0  0  0  0  0  0  0  0  0
  -16.0879    0.2438    2.0746 H   0  0  0  0  0  0  0  0  0  0  0  0
  -15.5305   -2.0800    2.6897 H   0  0  0  0  0  0  0  0  0  0  0  0
  -14.1223   -3.4675    1.1897 H   0  0  0  0  0  0  0  0  0  0  0  0
  -13.2904   -2.5262   -0.9459 H   0  0  0  0  0  0  0  0  0  0  0  0
  -13.8390   -0.1998   -1.5753 H   0  0  0  0  0  0  0  0  0  0  0  0
  -16.8416    2.8093   -0.2029 H   0  0  0  0  0  0  0  0  0  0  0  0
  -13.0395    1.5377   -5.3923 H   0  0  0  0  0  0  0  0  0  0  0  0
  -13.4989    2.4488   -3.9504 H   0  0  0  0  0  0  0  0  0  0  0  0
  -13.3333    0.6623   -3.8813 H   0  0  0  0  0  0  0  0  0  0  0  0
   -8.8627    4.8098    2.5299 H   0  0  0  0  0  0  0  0  0  0  0  0
   -8.1330    4.2829    1.0008 H   0  0  0  0  0  0  0  0  0  0  0  0
   -7.1231    4.4693    2.4676 H   0  0  0  0  0  0  0  0  0  0  0  0
   -7.8493   -1.3688    3.3751 H   0  0  0  0  0  0  0  0  0  0  0  0
   -6.3870   -2.3353    3.1945 H   0  0  0  0  0  0  0  0  0  0  0  0
   -6.5407   -1.2390    4.5760 H   0  0  0  0  0  0  0  0  0  0  0  0
   -4.5784   -2.3294    2.3366 H   0  0  0  0  0  0  0  0  0  0  0  0
   -6.6875   -2.3423    0.8189 H   0  0  0  0  0  0  0  0  0  0  0  0
   -4.7027   -2.0947   -1.4863 H   0  0  0  0  0  0  0  0  0  0  0  0
   -5.8150   -0.8118   -0.9752 H   0  0  0  0  0  0  0  0  0  0  0  0
   -6.4460   -2.3424   -1.5838 H   0  0  0  0  0  0  0  0  0  0  0  0
   -6.1759   -4.4746   -0.2346 H   0  0  0  0  0  0  0  0  0  0  0  0
   -5.4621   -4.4255    1.3809 H   0  0  0  0  0  0  0  0  0  0  0  0
   -4.4351   -4.2122   -0.0542 H   0  0  0  0  0  0  0  0  0  0  0  0
   -3.0939   -0.6826    0.4931 H   0  0  0  0  0  0  0  0  0  0  0  0
   -0.5768   -1.5377    1.5859 H   0  0  0  0  0  0  0  0  0  0  0  0
    0.9902   -2.7658   -0.0654 H   0  0  0  0  0  0  0  0  0  0  0  0
    1.3995   -4.5474    1.5203 H   0  0  0  0  0  0  0  0  0  0  0  0
    0.9744   -3.0787    2.4056 H   0  0  0  0  0  0  0  0  0  0  0  0
   -0.2100   -4.3838    2.2309 H   0  0  0  0  0  0  0  0  0  0  0  0
    0.3833   -5.0135   -0.7437 H   0  0  0  0  0  0  0  0  0  0  0  0
   -0.7360   -3.8808   -1.4951 H   0  0  0  0  0  0  0  0  0  0  0  0
   -1.2481   -4.8512   -0.1012 H   0  0  0  0  0  0  0  0  0  0  0  0
   -1.8757   -0.3417   -2.0991 H   0  0  0  0  0  0  0  0  0  0  0  0
   -2.3315   -1.9783   -1.5775 H   0  0  0  0  0  0  0  0  0  0  0  0
   -0.7517   -1.6944   -2.3562 H   0  0  0  0  0  0  0  0  0  0  0  0
    2.1173    1.1677    1.8169 H   0  0  0  0  0  0  0  0  0  0  0  0
    1.7843    1.7725    0.2024 H   0  0  0  0  0  0  0  0  0  0  0  0
    3.9308    1.8465   -0.8861 H   0  0  0  0  0  0  0  0  0  0  0  0
    6.0086    0.7960   -1.5843 H   0  0  0  0  0  0  0  0  0  0  0  0
    5.0066   -2.7183    0.7225 H   0  0  0  0  0  0  0  0  0  0  0  0
    2.9305   -1.6399    1.4424 H   0  0  0  0  0  0  0  0  0  0  0  0
    6.9416   -2.6842   -0.5243 H   0  0  0  0  0  0  0  0  0  0  0  0
    8.9275   -3.1269   -1.2683 H   0  0  0  0  0  0  0  0  0  0  0  0
    7.6817   -3.5334   -3.2032 H   0  0  0  0  0  0  0  0  0  0  0  0
    9.3414   -3.5133   -3.7586 H   0  0  0  0  0  0  0  0  0  0  0  0
    7.2535   -1.2934   -4.0845 H   0  0  0  0  0  0  0  0  0  0  0  0
    7.7401   -2.4352   -5.3101 H   0  0  0  0  0  0  0  0  0  0  0  0
    9.6970   -0.3784   -4.1222 H   0  0  0  0  0  0  0  0  0  0  0  0
    8.6734   -0.0942   -5.5224 H   0  0  0  0  0  0  0  0  0  0  0  0
   10.1202   -1.1555   -6.8023 H   0  0  0  0  0  0  0  0  0  0  0  0
   12.9693   -2.8227   -6.1623 H   0  0  0  0  0  0  0  0  0  0  0  0
   11.6464   -2.8356   -7.2269 H   0  0  0  0  0  0  0  0  0  0  0  0
   10.8597   -1.8232   -2.8493 H   0  0  0  0  0  0  0  0  0  0  0  0
   12.9595   -1.7846   -1.6408 H   0  0  0  0  0  0  0  0  0  0  0  0
   11.8112    0.3355   -2.4822 H   0  0  0  0  0  0  0  0  0  0  0  0
   14.2522   -0.0350   -2.7735 H   0  0  0  0  0  0  0  0  0  0  0  0
   14.5648    0.8233   -1.2527 H   0  0  0  0  0  0  0  0  0  0  0  0
   13.8329    1.6747   -2.6192 H   0  0  0  0  0  0  0  0  0  0  0  0
   12.5659    1.5402    0.2274 H   0  0  0  0  0  0  0  0  0  0  0  0
   10.9136    1.1665   -0.2980 H   0  0  0  0  0  0  0  0  0  0  0  0
   11.8649    2.3779   -1.1578 H   0  0  0  0  0  0  0  0  0  0  0  0
   12.4192   -1.1356    1.1267 H   0  0  0  0  0  0  0  0  0  0  0  0
   14.0214   -1.1434    2.6326 H   0  0  0  0  0  0  0  0  0  0  0  0
   14.6610   -2.7488    2.2715 H   0  0  0  0  0  0  0  0  0  0  0  0
   16.4154   -1.4213    3.3136 H   0  0  0  0  0  0  0  0  0  0  0  0
   16.8697   -1.7156    1.6355 H   0  0  0  0  0  0  0  0  0  0  0  0
   15.5327    0.8394    2.6774 H   0  0  0  0  0  0  0  0  0  0  0  0
   16.0370    0.5656    1.0071 H   0  0  0  0  0  0  0  0  0  0  0  0
   17.9036    0.6074    3.4333 H   0  0  0  0  0  0  0  0  0  0  0  0
   18.4185    0.3231    1.7748 H   0  0  0  0  0  0  0  0  0  0  0  0
   16.9665    2.8586    2.7148 H   0  0  0  0  0  0  0  0  0  0  0  0
   17.6179    2.5640    1.0859 H   0  0  0  0  0  0  0  0  0  0  0  0
   22.1722    3.8069    2.2473 H   0  0  0  0  0  0  0  0  0  0  0  0
   21.2064    4.1091    4.7289 H   0  0  0  0  0  0  0  0  0  0  0  0
  1  2  1  0
  2  3  1  0
  3  4  1  0
  3  5  1  0
  5  6  1  0
  6  7  1  0
  7  8  1  0
  8  9  2  0
  8 10  1  0
 10 11  1  0
 11 12  1  0
 12 13  1  0
 13 14  1  0
 14 15  1  0
 15 16  1  0
 16 17  1  0
 16 18  1  0
 18 19  2  0
 18 20  1  0
 20 21  1  0
 21 22  1  0
 21 23  1  0
 23 24  1  0
 24 25  2  0
 25 26  1  0
 26 27  2  0
 27 28  1  0
 28 29  2  0
 23 30  1  0
 15 31  1  0
 31 32  1  0
  6 33  1  0
 33 34  1  0
  5 35  1  0
 35 36  1  0
 35 37  1  0
 37 38  2  0
 37 39  1  0
 39 40  1  0
 40 41  1  0
 40 42  1  0
 39 43  1  0
 43 44  1  0
 44 45  2  0
 44 46  1  0
 46 47  1  0
 47 48  1  0
 47 49  1  0
 46 50  1  0
 50 51  1  0
 50 52  1  0
 52 53  2  0
 52 54  1  0
 54 55  1  0
 55 56  1  0
 56 57  1  0
 57 58  2  0
 58 59  1  0
 59 60  2  0
 60 61  1  0
 59 62  1  0
 62 63  1  0
 63 64  2  0
 63 65  1  0
 65 66  1  0
 66 67  1  0
 67 68  1  0
 68 69  1  0
 69 70  1  0
 70 71  2  0
 70 72  1  0
 65 73  1  0
 73 74  1  0
 74 75  2  0
 74 76  1  0
 76 77  1  0
 77 78  1  0
 77 79  1  0
 76 80  1  0
 80 81  1  0
 81 82  2  0
 81 83  1  0
 83 84  1  0
 84 85  1  0
 85 86  1  0
 86 87  1  0
 87 88  1  0
 88 89  1  0
 89 90  2  0
 89 91  1  0
 91 92  2  0
 92 93  1  0
 93 94  2  0
 14 10  1  0
 29 24  1  0
 61 56  2  0
 93 88  1  0
  1 95  1  0
  1 96  1  0
  1 97  1  0
  2 98  1  0
  2 99  1  0
  3100  1  1
  4101  1  0
  4102  1  0
  4103  1  0
  5104  1  1
  6105  1  6
  7106  1  0
  7107  1  0
 11108  1  0
 11109  1  0
 12110  1  0
 12111  1  0
 13112  1  0
 13113  1  0
 14114  1  6
 15115  1  1
 16116  1  1
 17117  1  0
 17118  1  0
 17119  1  0
 20120  1  0
 21121  1  1
 22122  1  0
 22123  1  0
 22124  1  0
 23125  1  6
 25126  1  0
 26127  1  0
 27128  1  0
 28129  1  0
 29130  1  0
 30131  1  0
 32132  1  0
 32133  1  0
 32134  1  0
 34135  1  0
 34136  1  0
 34137  1  0
 36138  1  0
 36139  1  0
 36140  1  0
 39141  1  1
 40142  1  0
 41143  1  0
 41144  1  0
 41145  1  0
 42146  1  0
 42147  1  0
 42148  1  0
 43149  1  0
 46150  1  1
 47151  1  0
 48152  1  0
 48153  1  0
 48154  1  0
 49155  1  0
 49156  1  0
 49157  1  0
 51158  1  0
 51159  1  0
 51160  1  0
 55161  1  0
 55162  1  0
 57163  1  0
 58164  1  0
 60165  1  0
 61166  1  0
 62167  1  0
 65168  1  1
 66169  1  0
 66170  1  0
 67171  1  0
 67172  1  0
 68173  1  0
 68174  1  0
 69175  1  0
 72176  1  0
 72177  1  0
 73178  1  0
 76179  1  6
 77180  1  0
 78181  1  0
 78182  1  0
 78183  1  0
 79184  1  0
 79185  1  0
 79186  1  0
 80187  1  0
 83188  1  0
 83189  1  0
 84190  1  0
 84191  1  0
 85192  1  0
 85193  1  0
 86194  1  0
 86195  1  0
 87196  1  0
 87197  1  0
 91198  1  0
 92199  1  0
M  END
$$$$

     RDKit          3D

199202  0  0  0  0  0  0  0  0999 V2000
   -9.8614    2.7462   -3.0609 C   0  0  0  0  0  0  0  0  0  0  0  0
   -8.8221    2.0270   -2.2068 C   0  0  0  0  0  0  0  0  0  0  0  0
   -7.5950    2.8866   -1.8623 C   0  0  2  0  0  0  0  0  0  0  0  0
   -6.9623    3.5385   -3.1039 C   0  0  0  0  0  0  0  0  0  0  0  0
   -6.5037    2.2199   -0.9615 C   0  0  1  0  0  0  0  0  0  0  0  0
   -6.9871    1.5973    0.4023 C   0  0  1  0  0  0  0  0  0  0  0  0
   -7.5974    0.1941    0.3304 C   0  0  0  0  0  0  0  0  0  0  0  0
   -8.3932   -0.1668    1.5749 C   0  0  0  0  0  0  0  0  0  0  0  0
   -8.7039    0.6651    2.4259 O   0  0  0  0  0  0  0  0  0  0  0  0
   -8.7815   -1.4934    1.6894 N   0  0  0  0  0  0  0  0  0  0  0  0
   -9.0796   -2.0379    3.0053 C   0  0  0  0  0  0  0  0  0  0  0  0
   -8.8977   -3.5476    2.8686 C   0  0  0  0  0  0  0  0  0  0  0  0
   -8.1231   -3.7146    1.5570 C   0  0  0  0  0  0  0  0  0  0  0  0
   -8.6543   -2.5598    0.6935 C   0  0  1  0  0  0  0  0  0  0  0  0
  -10.0030   -2.9825    0.0071 C   0  0  1  0  0  0  0  0  0  0  0  0
  -10.9988   -1.8137   -0.2595 C   0  0  1  0  0  0  0  0  0  0  0  0
  -10.8332   -1.1849   -1.6435 C   0  0  0  0  0  0  0  0  0  0  0  0
  -12.4417   -2.2844   -0.0362 C   0  0  0  0  0  0  0  0  0  0  0  0
  -12.7416   -3.4034    0.3594 O   0  0  0  0  0  0  0  0  0  0  0  0
  -13.4084   -1.3211   -0.2207 N   0  0  0  0  0  0  0  0  0  0  0  0
  -14.8447   -1.5997   -0.0212 C   0  0  2  0  0  0  0  0  0  0  0  0
  -15.6410   -0.5334   -0.7778 C   0  0  0  0  0  0  0  0  0  0  0  0
  -15.2353   -1.6729    1.4933 C   0  0  1  0  0  0  0  0  0  0  0  0
  -16.7214   -1.8808    1.7142 C   0  0  0  0  0  0  0  0  0  0  0  0
  -17.5357   -0.8122    2.1179 C   0  0  0  0  0  0  0  0  0  0  0  0
  -18.9096   -0.9922    2.2915 C   0  0  0  0  0  0  0  0  0  0  0  0
  -19.4849   -2.2422    2.0665 C   0  0  0  0  0  0  0  0  0  0  0  0
  -18.6873   -3.3161    1.6745 C   0  0  0  0  0  0  0  0  0  0  0  0
  -17.3160   -3.1351    1.4933 C   0  0  0  0  0  0  0  0  0  0  0  0
  -14.5693   -2.7315    2.1908 O   0  0  0  0  0  0  0  0  0  0  0  0
   -9.6321   -3.6296   -1.2312 O   0  0  0  0  0  0  0  0  0  0  0  0
  -10.4833   -4.7164   -1.5809 C   0  0  0  0  0  0  0  0  0  0  0  0
   -5.8358    1.4535    1.2681 O   0  0  0  0  0  0  0  0  0  0  0  0
   -5.6237    2.5721    2.1164 C   0  0  0  0  0  0  0  0  0  0  0  0
   -5.4731    1.3973   -1.6754 N   0  0  0  0  0  0  0  0  0  0  0  0
   -5.8988    0.2388   -2.4453 C   0  0  0  0  0  0  0  0  0  0  0  0
   -4.1373    1.8083   -1.5805 C   0  0  0  0  0  0  0  0  0  0  0  0
   -3.8354    2.8932   -1.0575 O   0  0  0  0  0  0  0  0  0  0  0  0
   -2.9801    0.9380   -2.1687 C   0  0  1  0  0  0  0  0  0  0  0  0
   -2.6458    1.1897   -3.6608 C   0  0  0  0  0  0  0  0  0  0  0  0
   -2.7797    2.6551   -4.0850 C   0  0  0  0  0  0  0  0  0  0  0  0
   -3.4214    0.2973   -4.6300 C   0  0  0  0  0  0  0  0  0  0  0  0
   -1.8041    1.3369   -1.3708 N   0  0  0  0  0  0  0  0  0  0  0  0
   -1.5141    0.7323   -0.1558 C   0  0  0  0  0  0  0  0  0  0  0  0
   -1.9621   -0.3667    0.1570 O   0  0  0  0  0  0  0  0  0  0  0  0
   -0.7541    1.6820    0.8217 C   0  0  1  0  0  0  0  0  0  0  0  0
   -0.1833    1.0799    2.1297 C   0  0  0  0  0  0  0  0  0  0  0  0
    0.7733   -0.0978    1.9573 C   0  0  0  0  0  0  0  0  0  0  0  0
   -1.3144    0.6814    3.0927 C   0  0  0  0  0  0  0  0  0  0  0  0
    0.1442    2.6364    0.1239 N   0  0  0  0  0  0  0  0  0  0  0  0
   -0.0998    4.0528    0.3418 C   0  0  0  0  0  0  0  0  0  0  0  0
    1.1652    2.2631   -0.7368 C   0  0  0  0  0  0  0  0  0  0  0  0
    1.7725    3.0605   -1.4456 O   0  0  0  0  0  0  0  0  0  0  0  0
    1.3841    0.9234   -0.7545 O   0  0  0  0  0  0  0  0  0  0  0  0
    2.3280    0.4602   -1.7338 C   0  0  0  0  0  0  0  0  0  0  0  0
    3.7670    0.7432   -1.3663 C   0  0  0  0  0  0  0  0  0  0  0  0
    4.5685    1.5109   -2.2201 C   0  0  0  0  0  0  0  0  0  0  0  0
    5.8964    1.8027   -1.8948 C   0  0  0  0  0  0  0  0  0  0  0  0
    6.4576    1.3335   -0.7065 C   0  0  0  0  0  0  0  0  0  0  0  0
    5.6651    0.5519    0.1423 C   0  0  0  0  0  0  0  0  0  0  0  0
    4.3351    0.2542   -0.1849 C   0  0  0  0  0  0  0  0  0  0  0  0
    7.7706    1.6316   -0.2899 N   0  0  0  0  0  0  0  0  0  0  0  0
    8.7321    2.3465   -0.9821 C   0  0  0  0  0  0  0  0  0  0  0  0
    8.6060    2.8252   -2.1097 O   0  0  0  0  0  0  0  0  0  0  0  0
    9.9626    2.7365   -0.1210 C   0  0  1  0  0  0  0  0  0  0  0  0
    9.5922    4.0637    0.5693 C   0  0  0  0  0  0  0  0  0  0  0  0
   10.7705    4.9940    0.8771 C   0  0  0  0  0  0  0  0  0  0  0  0
   11.5837    4.6097    2.1078 C   0  0  0  0  0  0  0  0  0  0  0  0
   12.5702    3.5827    1.8429 N   0  0  0  0  0  0  0  0  0  0  0  0
   13.3302    3.1491    2.8977 C   0  0  0  0  0  0  0  0  0  0  0  0
   13.0385    3.2791    4.0752 O   0  0  0  0  0  0  0  0  0  0  0  0
   14.4791    2.5733    2.4868 N   0  0  0  0  0  0  0  0  0  0  0  0
   10.3820    1.7376    0.8730 N   0  0  0  0  0  0  0  0  0  0  0  0
   10.8082    0.5028    0.4222 C   0  0  0  0  0  0  0  0  0  0  0  0
   10.4669    0.0380   -0.6616 O   0  0  0  0  0  0  0  0  0  0  0  0
   11.7105   -0.2960    1.3951 C   0  0  1  0  0  0  0  0  0  0  0  0
   10.8953   -1.2923    2.2454 C   0  0  0  0  0  0  0  0  0  0  0  0
   11.8204   -2.1650    3.1051 C   0  0  0  0  0  0  0  0  0  0  0  0
    9.8927   -0.5818    3.1599 C   0  0  0  0  0  0  0  0  0  0  0  0
   12.6434   -1.0004    0.5108 N   0  0  0  0  0  0  0  0  0  0  0  0
   13.7918   -0.3766    0.0660 C   0  0  0  0  0  0  0  0  0  0  0  0
   14.2121    0.6727    0.5467 O   0  0  0  0  0  0  0  0  0  0  0  0
   14.4409   -1.0971   -1.1006 C   0  0  0  0  0  0  0  0  0  0  0  0
   15.8417   -0.5840   -1.4365 C   0  0  0  0  0  0  0  0  0  0  0  0
   16.9211   -0.9185   -0.3984 C   0  0  0  0  0  0  0  0  0  0  0  0
   17.0665   -2.4010   -0.0427 C   0  0  0  0  0  0  0  0  0  0  0  0
   17.4041   -3.2861   -1.2443 C   0  0  0  0  0  0  0  0  0  0  0  0
   17.4102   -4.6880   -0.8842 N   0  0  0  0  0  0  0  0  0  0  0  0
   18.5017   -5.3884   -0.4934 C   0  0  0  0  0  0  0  0  0  0  0  0
   19.6547   -5.0164   -0.3787 O   0  0  0  0  0  0  0  0  0  0  0  0
   18.0520   -6.7548   -0.1918 C   0  0  0  0  0  0  0  0  0  0  0  0
   16.7316   -6.7956   -0.3769 C   0  0  0  0  0  0  0  0  0  0  0  0
   16.2976   -5.4605   -0.7987 C   0  0  0  0  0  0  0  0  0  0  0  0
   15.1378   -5.1541   -1.0027 O   0  0  0  0  0  0  0  0  0  0  0  0
  -10.1392    3.7060   -2.6133 H   0  0  0  0  0  0  0  0  0  0  0  0
  -10.7675    2.1376   -3.1379 H   0  0  0  0  0  0  0  0  0  0  0  0
   -9.4956    2.9257   -4.0761 H   0  0  0  0  0  0  0  0  0  0  0  0
   -8.5263    1.1075   -2.7196 H   0  0  0  0  0  0  0  0  0  0  0  0
   -9.3268    1.7444   -1.2763 H   0  0  0  0  0  0  0  0  0  0  0  0
   -7.9880    3.7199   -1.2582 H   0  0  0  0  0  0  0  0  0  0  0  0
   -6.6991    2.7946   -3.8615 H   0  0  0  0  0  0  0  0  0  0  0  0
   -7.6467    4.2563   -3.5639 H   0  0  0  0  0  0  0  0  0  0  0  0
   -6.0559    4.0927   -2.8379 H   0  0  0  0  0  0  0  0  0  0  0  0
   -5.9555    3.1057   -0.6184 H   0  0  0  0  0  0  0  0  0  0  0  0
   -7.7054    2.2931    0.8566 H   0  0  0  0  0  0  0  0  0  0  0  0
   -8.2795    0.0858   -0.5090 H   0  0  0  0  0  0  0  0  0  0  0  0
   -6.7848   -0.5366    0.2477 H   0  0  0  0  0  0  0  0  0  0  0  0
  -10.1037   -1.7741    3.2877 H   0  0  0  0  0  0  0  0  0  0  0  0
   -8.3882   -1.6148    3.7425 H   0  0  0  0  0  0  0  0  0  0  0  0
   -8.3674   -3.9811    3.7224 H   0  0  0  0  0  0  0  0  0  0  0  0
   -9.8751   -4.0378    2.8027 H   0  0  0  0  0  0  0  0  0  0  0  0
   -7.0520   -3.5752    1.7503 H   0  0  0  0  0  0  0  0  0  0  0  0
   -8.2637   -4.7026    1.1074 H   0  0  0  0  0  0  0  0  0  0  0  0
   -7.9244   -2.3090   -0.0811 H   0  0  0  0  0  0  0  0  0  0  0  0
  -10.4728   -3.7273    0.6593 H   0  0  0  0  0  0  0  0  0  0  0  0
  -10.8602   -1.0301    0.4925 H   0  0  0  0  0  0  0  0  0  0  0  0
   -9.7778   -1.0392   -1.8924 H   0  0  0  0  0  0  0  0  0  0  0  0
  -11.3118   -0.1988   -1.6802 H   0  0  0  0  0  0  0  0  0  0  0  0
  -11.2931   -1.7969   -2.4271 H   0  0  0  0  0  0  0  0  0  0  0  0
  -13.1169   -0.3511   -0.2563 H   0  0  0  0  0  0  0  0  0  0  0  0
  -15.0363   -2.5775   -0.4816 H   0  0  0  0  0  0  0  0  0  0  0  0
  -15.5107    0.4527   -0.3197 H   0  0  0  0  0  0  0  0  0  0  0  0
  -16.7092   -0.7636   -0.8022 H   0  0  0  0  0  0  0  0  0  0  0  0
  -15.2993   -0.4599   -1.8168 H   0  0  0  0  0  0  0  0  0  0  0  0
  -14.9148   -0.7475    1.9851 H   0  0  0  0  0  0  0  0  0  0  0  0
  -17.1053    0.1702    2.3040 H   0  0  0  0  0  0  0  0  0  0  0  0
  -19.5312   -0.1566    2.6052 H   0  0  0  0  0  0  0  0  0  0  0  0
  -20.5522   -2.3822    2.2102 H   0  0  0  0  0  0  0  0  0  0  0  0
  -19.1300   -4.2962    1.5163 H   0  0  0  0  0  0  0  0  0  0  0  0
  -16.7006   -3.9845    1.1978 H   0  0  0  0  0  0  0  0  0  0  0  0
  -13.9314   -3.1466    1.5767 H   0  0  0  0  0  0  0  0  0  0  0  0
  -11.5199   -4.3896   -1.6927 H   0  0  0  0  0  0  0  0  0  0  0  0
  -10.4085   -5.5132   -0.8348 H   0  0  0  0  0  0  0  0  0  0  0  0
  -10.1520   -5.1126   -2.5471 H   0  0  0  0  0  0  0  0  0  0  0  0
   -4.7092    2.3932    2.6887 H   0  0  0  0  0  0  0  0  0  0  0  0
   -5.4977    3.4881    1.5375 H   0  0  0  0  0  0  0  0  0  0  0  0
   -6.4567    2.6778    2.8154 H   0  0  0  0  0  0  0  0  0  0  0  0
   -6.6964   -0.3019   -1.9454 H   0  0  0  0  0  0  0  0  0  0  0  0
   -5.0908   -0.4697   -2.6119 H   0  0  0  0  0  0  0  0  0  0  0  0
   -6.2767    0.5842   -3.4098 H   0  0  0  0  0  0  0  0  0  0  0  0
   -3.1608   -0.1215   -1.9684 H   0  0  0  0  0  0  0  0  0  0  0  0
   -1.5888    0.9174   -3.8011 H   0  0  0  0  0  0  0  0  0  0  0  0
   -2.1868    3.3117   -3.4403 H   0  0  0  0  0  0  0  0  0  0  0  0
   -2.4189    2.7936   -5.1092 H   0  0  0  0  0  0  0  0  0  0  0  0
   -3.8219    2.9921   -4.0548 H   0  0  0  0  0  0  0  0  0  0  0  0
   -3.4084   -0.7484   -4.3017 H   0  0  0  0  0  0  0  0  0  0  0  0
   -2.9644    0.3321   -5.6255 H   0  0  0  0  0  0  0  0  0  0  0  0
   -4.4588    0.6225   -4.7427 H   0  0  0  0  0  0  0  0  0  0  0  0
   -1.6348    2.3391   -1.3712 H   0  0  0  0  0  0  0  0  0  0  0  0
   -1.5835    2.3263    1.1591 H   0  0  0  0  0  0  0  0  0  0  0  0
    0.3809    1.8738    2.6389 H   0  0  0  0  0  0  0  0  0  0  0  0
    1.7269    0.2397    1.5457 H   0  0  0  0  0  0  0  0  0  0  0  0
    1.0034   -0.5564    2.9261 H   0  0  0  0  0  0  0  0  0  0  0  0
    0.3621   -0.8784    1.3107 H   0  0  0  0  0  0  0  0  0  0  0  0
   -1.8954   -0.1647    2.7148 H   0  0  0  0  0  0  0  0  0  0  0  0
   -1.9993    1.5188    3.2636 H   0  0  0  0  0  0  0  0  0  0  0  0
   -0.9056    0.3927    4.0668 H   0  0  0  0  0  0  0  0  0  0  0  0
    0.6704    4.6805   -0.1142 H   0  0  0  0  0  0  0  0  0  0  0  0
   -0.1193    4.2452    1.4193 H   0  0  0  0  0  0  0  0  0  0  0  0
   -1.0701    4.3132   -0.0906 H   0  0  0  0  0  0  0  0  0  0  0  0
    2.1979   -0.6235   -1.8200 H   0  0  0  0  0  0  0  0  0  0  0  0
    2.0690    0.8762   -2.7153 H   0  0  0  0  0  0  0  0  0  0  0  0
    4.1582    1.9106   -3.1475 H   0  0  0  0  0  0  0  0  0  0  0  0
    6.4587    2.4153   -2.5925 H   0  0  0  0  0  0  0  0  0  0  0  0
    6.0672    0.1706    1.0794 H   0  0  0  0  0  0  0  0  0  0  0  0
    3.7404   -0.3526    0.4938 H   0  0  0  0  0  0  0  0  0  0  0  0
    8.0787    1.2384    0.5911 H   0  0  0  0  0  0  0  0  0  0  0  0
   10.8051    2.8720   -0.8134 H   0  0  0  0  0  0  0  0  0  0  0  0
    9.0211    3.8698    1.4866 H   0  0  0  0  0  0  0  0  0  0  0  0
    8.9203    4.6346   -0.0877 H   0  0  0  0  0  0  0  0  0  0  0  0
   10.3439    5.9876    1.0718 H   0  0  0  0  0  0  0  0  0  0  0  0
   11.4128    5.1041   -0.0052 H   0  0  0  0  0  0  0  0  0  0  0  0
   12.1292    5.4922    2.4659 H   0  0  0  0  0  0  0  0  0  0  0  0
   10.9310    4.2837    2.9270 H   0  0  0  0  0  0  0  0  0  0  0  0
   13.1523    3.7312    1.0252 H   0  0  0  0  0  0  0  0  0  0  0  0
   15.0429    2.1929    3.2430 H   0  0  0  0  0  0  0  0  0  0  0  0
   14.4059    1.9131    1.7105 H   0  0  0  0  0  0  0  0  0  0  0  0
   10.9821    2.1207    1.6012 H   0  0  0  0  0  0  0  0  0  0  0  0
   12.2692    0.3938    2.0353 H   0  0  0  0  0  0  0  0  0  0  0  0
   10.3296   -1.9593    1.5815 H   0  0  0  0  0  0  0  0  0  0  0  0
   11.2395   -2.8706    3.7122 H   0  0  0  0  0  0  0  0  0  0  0  0
   12.4268   -1.5533    3.7848 H   0  0  0  0  0  0  0  0  0  0  0  0
   12.5016   -2.7578    2.4853 H   0  0  0  0  0  0  0  0  0  0  0  0
   10.3905    0.1649    3.7906 H   0  0  0  0  0  0  0  0  0  0  0  0
    9.1125   -0.0782    2.5804 H   0  0  0  0  0  0  0  0  0  0  0  0
    9.3904   -1.2990    3.8198 H   0  0  0  0  0  0  0  0  0  0  0  0
   12.1994   -1.6235   -0.1588 H   0  0  0  0  0  0  0  0  0  0  0  0
   14.4494   -2.1756   -0.9059 H   0  0  0  0  0  0  0  0  0  0  0  0
   13.7931   -0.9345   -1.9714 H   0  0  0  0  0  0  0  0  0  0  0  0
   16.1388   -0.9939   -2.4085 H   0  0  0  0  0  0  0  0  0  0  0  0
   15.8132    0.5055   -1.5673 H   0  0  0  0  0  0  0  0  0  0  0  0
   16.7193   -0.3618    0.5242 H   0  0  0  0  0  0  0  0  0  0  0  0
   17.8839   -0.5488   -0.7726 H   0  0  0  0  0  0  0  0  0  0  0  0
   16.1540   -2.7580    0.4499 H   0  0  0  0  0  0  0  0  0  0  0  0
   17.8625   -2.5035    0.7059 H   0  0  0  0  0  0  0  0  0  0  0  0
   18.3888   -3.0161   -1.6444 H   0  0  0  0  0  0  0  0  0  0  0  0
   16.6621   -3.1606   -2.0378 H   0  0  0  0  0  0  0  0  0  0  0  0
   18.7149   -7.5420    0.1221 H   0  0  0  0  0  0  0  0  0  0  0  0
   16.0599   -7.6263   -0.2480 H   0  0  0  0  0  0  0  0  0  0  0  0
  1  2  1  0
  2  3  1  0
  3  4  1  0
  3  5  1  0
  5  6  1  0
  6  7  1  0
  7  8  1  0
  8  9  2  0
  8 10  1  0
 10 11  1  0
 11 12  1  0
 12 13  1  0
 13 14  1  0
 14 15  1  0
 15 16  1  0
 16 17  1  0
 16 18  1  0
 18 19  2  0
 18 20  1  0
 20 21  1  0
 21 22  1  0
 21 23  1  0
 23 24  1  0
 24 25  2  0
 25 26  1  0
 26 27  2  0
 27 28  1  0
 28 29  2  0
 23 30  1  0
 15 31  1  0
 31 32  1  0
  6 33  1  0
 33 34  1  0
  5 35  1  0
 35 36  1  0
 35 37  1  0
 37 38  2  0
 37 39  1  0
 39 40  1  0
 40 41  1  0
 40 42  1  0
 39 43  1  0
 43 44  1  0
 44 45  2  0
 44 46  1  0
 46 47  1  0
 47 48  1  0
 47 49  1  0
 46 50  1  0
 50 51  1  0
 50 52  1  0
 52 53  2  0
 52 54  1  0
 54 55  1  0
 55 56  1  0
 56 57  1  0
 57 58  2  0
 58 59  1  0
 59 60  2  0
 60 61  1  0
 59 62  1  0
 62 63  1  0
 63 64  2  0
 63 65  1  0
 65 66  1  0
 66 67  1  0
 67 68  1  0
 68 69  1  0
 69 70  1  0
 70 71  2  0
 70 72  1  0
 65 73  1  0
 73 74  1  0
 74 75  2  0
 74 76  1  0
 76 77  1  0
 77 78  1  0
 77 79  1  0
 76 80  1  0
 80 81  1  0
 81 82  2  0
 81 83  1  0
 83 84  1  0
 84 85  1  0
 85 86  1  0
 86 87  1  0
 87 88  1  0
 88 89  1  0
 89 90  2  0
 89 91  1  0
 91 92  2  0
 92 93  1  0
 93 94  2  0
 14 10  1  0
 29 24  1  0
 61 56  2  0
 93 88  1  0
  1 95  1  0
  1 96  1  0
  1 97  1  0
  2 98  1  0
  2 99  1  0
  3100  1  1
  4101  1  0
  4102  1  0
  4103  1  0
  5104  1  1
  6105  1  1
  7106  1  0
  7107  1  0
 11108  1  0
 11109  1  0
 12110  1  0
 12111  1  0
 13112  1  0
 13113  1  0
 14114  1  6
 15115  1  1
 16116  1  1
 17117  1  0
 17118  1  0
 17119  1  0
 20120  1  0
 21121  1  6
 22122  1  0
 22123  1  0
 22124  1  0
 23125  1  1
 25126  1  0
 26127  1  0
 27128  1  0
 28129  1  0
 29130  1  0
 30131  1  0
 32132  1  0
 32133  1  0
 32134  1  0
 34135  1  0
 34136  1  0
 34137  1  0
 36138  1  0
 36139  1  0
 36140  1  0
 39141  1  6
 40142  1  0
 41143  1  0
 41144  1  0
 41145  1  0
 42146  1  0
 42147  1  0
 42148  1  0
 43149  1  0
 46150  1  1
 47151  1  0
 48152  1  0
 48153  1  0
 48154  1  0
 49155  1  0
 49156  1  0
 49157  1  0
 51158  1  0
 51159  1  0
 51160  1  0
 55161  1  0
 55162  1  0
 57163  1  0
 58164  1  0
 60165  1  0
 61166  1  0
 62167  1  0
 65168  1  6
 66169  1  0
 66170  1  0
 67171  1  0
 67172  1  0
 68173  1  0
 68174  1  0
 69175  1  0
 72176  1  0
 72177  1  0
 73178  1  0
 76179  1  1
 77180  1  0
 78181  1  0
 78182  1  0
 78183  1  0
 79184  1  0
 79185  1  0
 79186  1  0
 80187  1  0
 83188  1  0
 83189  1  0
 84190  1  0
 84191  1  0
 85192  1  0
 85193  1  0
 86194  1  0
 86195  1  0
 87196  1  0
 87197  1  0
 91198  1  0
 92199  1  0
M  END
$$$$

     RDKit          3D

199202  0  0  0  0  0  0  0  0999 V2000
   -7.7567   -3.6547   -0.6897 C   0  0  0  0  0  0  0  0  0  0  0  0
   -6.5101   -3.5258    0.1731 C   0  0  0  0  0  0  0  0  0  0  0  0
   -6.0330   -2.0748    0.4670 C   0  0  2  0  0  0  0  0  0  0  0  0
   -7.0298   -1.3977    1.4092 C   0  0  0  0  0  0  0  0  0  0  0  0
   -5.6728   -1.2990   -0.8524 C   0  0  1  0  0  0  0  0  0  0  0  0
   -6.7523   -0.3225   -1.4480 C   0  0  1  0  0  0  0  0  0  0  0  0
   -6.7816    1.0751   -0.8212 C   0  0  0  0  0  0  0  0  0  0  0  0
   -7.6754    2.0661   -1.5381 C   0  0  0  0  0  0  0  0  0  0  0  0
   -7.2087    2.7215   -2.4783 O   0  0  0  0  0  0  0  0  0  0  0  0
   -8.9753    2.2585   -1.1335 N   0  0  0  0  0  0  0  0  0  0  0  0
   -9.7538    3.3009   -1.7996 C   0  0  0  0  0  0  0  0  0  0  0  0
  -11.0723    3.3843   -1.0485 C   0  0  0  0  0  0  0  0  0  0  0  0
  -10.7182    2.8077    0.3115 C   0  0  0  0  0  0  0  0  0  0  0  0
   -9.7536    1.6673   -0.0180 C   0  0  1  0  0  0  0  0  0  0  0  0
  -10.4072    0.2965   -0.4108 C   0  0  1  0  0  0  0  0  0  0  0  0
  -11.3947   -0.3539    0.5979 C   0  0  1  0  0  0  0  0  0  0  0  0
  -10.9581   -0.2357    2.0566 C   0  0  0  0  0  0  0  0  0  0  0  0
  -12.8572    0.0740    0.4555 C   0  0  0  0  0  0  0  0  0  0  0  0
  -13.2270    1.1445   -0.0129 O   0  0  0  0  0  0  0  0  0  0  0  0
  -13.7512   -0.8609    0.9469 N   0  0  0  0  0  0  0  0  0  0  0  0
  -15.2001   -0.7047    0.7592 C   0  0  2  0  0  0  0  0  0  0  0  0
  -15.8167   -0.0922    2.0171 C   0  0  0  0  0  0  0  0  0  0  0  0
  -15.8580   -2.0726    0.4022 C   0  0  1  0  0  0  0  0  0  0  0  0
  -17.3052   -1.9916   -0.0386 C   0  0  0  0  0  0  0  0  0  0  0  0
  -17.7241   -1.1046   -1.0444 C   0  0  0  0  0  0  0  0  0  0  0  0
  -19.0615   -1.0600   -1.4439 C   0  0  0  0  0  0  0  0  0  0  0  0
  -19.9957   -1.9087   -0.8554 C   0  0  0  0  0  0  0  0  0  0  0  0
  -19.5912   -2.8108    0.1270 C   0  0  0  0  0  0  0  0  0  0  0  0
  -18.2552   -2.8548    0.5309 C   0  0  0  0  0  0  0  0  0  0  0  0
  -15.0859   -2.7121   -0.6325 O   0  0  0  0  0  0  0  0  0  0  0  0
  -10.9343    0.3470   -1.7482 O   0  0  0  0  0  0  0  0  0  0  0  0
  -11.1976   -0.9170   -2.3386 C   0  0  0  0  0  0  0  0  0  0  0  0
   -6.4425   -0.2263   -2.8591 O   0  0  0  0  0  0  0  0  0  0  0  0
   -7.5790   -0.3596   -3.7058 C   0  0  0  0  0  0  0  0  0  0  0  0
   -4.2723   -0.7600   -0.8782 N   0  0  0  0  0  0  0  0  0  0  0  0
   -3.5781   -0.8749   -2.1623 C   0  0  0  0  0  0  0  0  0  0  0  0
   -3.7818    0.0401    0.1530 C   0  0  0  0  0  0  0  0  0  0  0  0
   -4.4430    0.2620    1.1780 O   0  0  0  0  0  0  0  0  0  0  0  0
   -2.3742    0.7005    0.0204 C   0  0  1  0  0  0  0  0  0  0  0  0
   -2.4472    2.0123   -0.7955 C   0  0  0  0  0  0  0  0  0  0  0  0
   -3.0995    3.1694   -0.0309 C   0  0  0  0  0  0  0  0  0  0  0  0
   -1.0697    2.4447   -1.3025 C   0  0  0  0  0  0  0  0  0  0  0  0
   -1.8839    0.8968    1.3873 N   0  0  0  0  0  0  0  0  0  0  0  0
   -0.5507    0.7844    1.7384 C   0  0  0  0  0  0  0  0  0  0  0  0
    0.3379    0.6677    0.9015 O   0  0  0  0  0  0  0  0  0  0  0  0
   -0.3115    0.8109    3.2746 C   0  0  1  0  0  0  0  0  0  0  0  0
   -0.8125   -0.4434    4.0567 C   0  0  0  0  0  0  0  0  0  0  0  0
   -1.1610   -1.6593    3.1923 C   0  0  0  0  0  0  0  0  0  0  0  0
   -2.0138   -0.0830    4.9413 C   0  0  0  0  0  0  0  0  0  0  0  0
    1.0610    1.2018    3.6685 N   0  0  0  0  0  0  0  0  0  0  0  0
    1.1973    2.3761    4.5106 C   0  0  0  0  0  0  0  0  0  0  0  0
    2.1552    0.3518    3.5775 C   0  0  0  0  0  0  0  0  0  0  0  0
    3.1946    0.5158    4.2078 O   0  0  0  0  0  0  0  0  0  0  0  0
    1.9441   -0.6870    2.7287 O   0  0  0  0  0  0  0  0  0  0  0  0
    3.0414   -1.5971    2.5653 C   0  0  0  0  0  0  0  0  0  0  0  0
    4.1986   -1.0905    1.7280 C   0  0  0  0  0  0  0  0  0  0  0  0
    4.1027    0.0349    0.9051 C   0  0  0  0  0  0  0  0  0  0  0  0
    5.2139    0.5004    0.1880 C   0  0  0  0  0  0  0  0  0  0  0  0
    6.4359   -0.1694    0.2555 C   0  0  0  0  0  0  0  0  0  0  0  0
    6.5203   -1.3340    1.0271 C   0  0  0  0  0  0  0  0  0  0  0  0
    5.4191   -1.7833    1.7619 C   0  0  0  0  0  0  0  0  0  0  0  0
    7.6126    0.2608   -0.3907 N   0  0  0  0  0  0  0  0  0  0  0  0
    7.8340    1.4612   -1.0469 C   0  0  0  0  0  0  0  0  0  0  0  0
    6.9914    2.3296   -1.2531 O   0  0  0  0  0  0  0  0  0  0  0  0
    9.3180    1.6767   -1.4628 C   0  0  1  0  0  0  0  0  0  0  0  0
    9.8022    3.0052   -0.8526 C   0  0  0  0  0  0  0  0  0  0  0  0
   11.2796    3.3523   -1.0938 C   0  0  0  0  0  0  0  0  0  0  0  0
   11.6773    3.5515   -2.5551 C   0  0  0  0  0  0  0  0  0  0  0  0
   11.1108    4.7565   -3.1217 N   0  0  0  0  0  0  0  0  0  0  0  0
    9.9696    4.7398   -3.8622 C   0  0  0  0  0  0  0  0  0  0  0  0
    9.3411    3.7449   -4.1835 O   0  0  0  0  0  0  0  0  0  0  0  0
    9.5694    5.9827   -4.2247 N   0  0  0  0  0  0  0  0  0  0  0  0
   10.2110    0.5821   -1.0438 N   0  0  0  0  0  0  0  0  0  0  0  0
   10.6295   -0.4053   -1.9138 C   0  0  0  0  0  0  0  0  0  0  0  0
   10.1549   -0.5419   -3.0374 O   0  0  0  0  0  0  0  0  0  0  0  0
   11.6436   -1.3974   -1.2991 C   0  0  1  0  0  0  0  0  0  0  0  0
   12.5137   -2.0797   -2.3828 C   0  0  0  0  0  0  0  0  0  0  0  0
   13.2855   -3.2789   -1.8236 C   0  0  0  0  0  0  0  0  0  0  0  0
   13.4885   -1.1086   -3.0606 C   0  0  0  0  0  0  0  0  0  0  0  0
   12.4446   -0.7294   -0.2629 N   0  0  0  0  0  0  0  0  0  0  0  0
   12.7492   -1.3518    0.9255 C   0  0  0  0  0  0  0  0  0  0  0  0
   12.2626   -2.4268    1.2573 O   0  0  0  0  0  0  0  0  0  0  0  0
   13.6923   -0.5570    1.8059 C   0  0  0  0  0  0  0  0  0  0  0  0
   14.4484   -1.4344    2.8002 C   0  0  0  0  0  0  0  0  0  0  0  0
   15.4606   -2.4119    2.1799 C   0  0  0  0  0  0  0  0  0  0  0  0
   16.7154   -1.7482    1.6041 C   0  0  0  0  0  0  0  0  0  0  0  0
   16.6539   -1.5134    0.0900 C   0  0  0  0  0  0  0  0  0  0  0  0
   17.8774   -0.9045   -0.3914 N   0  0  0  0  0  0  0  0  0  0  0  0
   18.9158   -1.5823   -0.9362 C   0  0  0  0  0  0  0  0  0  0  0  0
   19.0061   -2.7701   -1.1935 O   0  0  0  0  0  0  0  0  0  0  0  0
   19.9819   -0.6073   -1.1896 C   0  0  0  0  0  0  0  0  0  0  0  0
   19.5502    0.5837   -0.7693 C   0  0  0  0  0  0  0  0  0  0  0  0
   18.1932    0.4062   -0.2444 C   0  0  0  0  0  0  0  0  0  0  0  0
   17.5264    1.3018    0.2435 O   0  0  0  0  0  0  0  0  0  0  0  0
   -7.5732   -3.3156   -1.7113 H   0  0  0  0  0  0  0  0  0  0  0  0
   -8.5995   -3.0909   -0.2850 H   0  0  0  0  0  0  0  0  0  0  0  0
   -8.0567   -4.7062   -0.7476 H   0  0  0  0  0  0  0  0  0  0  0  0
   -6.6931   -4.0343    1.1267 H   0  0  0  0  0  0  0  0  0  0  0  0
   -5.6913   -4.0751   -0.3070 H   0  0  0  0  0  0  0  0  0  0  0  0
   -5.1044   -2.2077    1.0401 H   0  0  0  0  0  0  0  0  0  0  0  0
   -7.1898   -2.0142    2.3014 H   0  0  0  0  0  0  0  0  0  0  0  0
   -6.6747   -0.4307    1.7661 H   0  0  0  0  0  0  0  0  0  0  0  0
   -8.0024   -1.2537    0.9393 H   0  0  0  0  0  0  0  0  0  0  0  0
   -5.6108   -2.1023   -1.6004 H   0  0  0  0  0  0  0  0  0  0  0  0
   -7.7307   -0.7993   -1.3514 H   0  0  0  0  0  0  0  0  0  0  0  0
   -7.0436    1.0496    0.2346 H   0  0  0  0  0  0  0  0  0  0  0  0
   -5.7844    1.5242   -0.8750 H   0  0  0  0  0  0  0  0  0  0  0  0
   -9.8926    3.0462   -2.8564 H   0  0  0  0  0  0  0  0  0  0  0  0
   -9.2008    4.2439   -1.7323 H   0  0  0  0  0  0  0  0  0  0  0  0
  -11.4513    4.4083   -0.9891 H   0  0  0  0  0  0  0  0  0  0  0  0
  -11.8329    2.7767   -1.5489 H   0  0  0  0  0  0  0  0  0  0  0  0
  -11.5806    2.5295    0.9136 H   0  0  0  0  0  0  0  0  0  0  0  0
  -10.1804    3.5740    0.8869 H   0  0  0  0  0  0  0  0  0  0  0  0
   -9.0868    1.4992    0.8346 H   0  0  0  0  0  0  0  0  0  0  0  0
   -9.5598   -0.3920   -0.4607 H   0  0  0  0  0  0  0  0  0  0  0  0
  -11.3876   -1.4291    0.3590 H   0  0  0  0  0  0  0  0  0  0  0  0
  -11.5758   -0.8668    2.7029 H   0  0  0  0  0  0  0  0  0  0  0  0
  -11.0562    0.7891    2.4266 H   0  0  0  0  0  0  0  0  0  0  0  0
   -9.9207   -0.5521    2.1891 H   0  0  0  0  0  0  0  0  0  0  0  0
  -13.4208   -1.8082    1.1007 H   0  0  0  0  0  0  0  0  0  0  0  0
  -15.3451   -0.0047   -0.0738 H   0  0  0  0  0  0  0  0  0  0  0  0
  -15.3651    0.8828    2.2326 H   0  0  0  0  0  0  0  0  0  0  0  0
  -16.8950    0.0555    1.9068 H   0  0  0  0  0  0  0  0  0  0  0  0
  -15.6456   -0.7328    2.8897 H   0  0  0  0  0  0  0  0  0  0  0  0
  -15.7738   -2.7313    1.2768 H   0  0  0  0  0  0  0  0  0  0  0  0
  -17.0157   -0.4361   -1.5321 H   0  0  0  0  0  0  0  0  0  0  0  0
  -19.3742   -0.3613   -2.2160 H   0  0  0  0  0  0  0  0  0  0  0  0
  -21.0362   -1.8748   -1.1701 H   0  0  0  0  0  0  0  0  0  0  0  0
  -20.3181   -3.4796    0.5806 H   0  0  0  0  0  0  0  0  0  0  0  0
  -17.9624   -3.5725    1.2948 H   0  0  0  0  0  0  0  0  0  0  0  0
  -15.6543   -2.7775   -1.4207 H   0  0  0  0  0  0  0  0  0  0  0  0
  -12.1028   -1.3596   -1.9171 H   0  0  0  0  0  0  0  0  0  0  0  0
  -11.3622   -0.7681   -3.4090 H   0  0  0  0  0  0  0  0  0  0  0  0
  -10.3509   -1.5993   -2.2153 H   0  0  0  0  0  0  0  0  0  0  0  0
   -7.2469   -0.2504   -4.7421 H   0  0  0  0  0  0  0  0  0  0  0  0
   -8.0228   -1.3512   -3.5903 H   0  0  0  0  0  0  0  0  0  0  0  0
   -8.3271    0.4075   -3.4970 H   0  0  0  0  0  0  0  0  0  0  0  0
   -3.8459   -0.0218   -2.7936 H   0  0  0  0  0  0  0  0  0  0  0  0
   -2.4941   -0.8941   -2.0385 H   0  0  0  0  0  0  0  0  0  0  0  0
   -3.8568   -1.8064   -2.6659 H   0  0  0  0  0  0  0  0  0  0  0  0
   -1.6914   -0.0133   -0.4493 H   0  0  0  0  0  0  0  0  0  0  0  0
   -3.0651    1.8338   -1.6835 H   0  0  0  0  0  0  0  0  0  0  0  0
   -2.5036    3.4664    0.8386 H   0  0  0  0  0  0  0  0  0  0  0  0
   -3.1967    4.0488   -0.6770 H   0  0  0  0  0  0  0  0  0  0  0  0
   -4.1017    2.9030    0.3160 H   0  0  0  0  0  0  0  0  0  0  0  0
   -1.1623    3.2851   -1.9988 H   0  0  0  0  0  0  0  0  0  0  0  0
   -0.4195    2.7691   -0.4834 H   0  0  0  0  0  0  0  0  0  0  0  0
   -0.5730    1.6271   -1.8372 H   0  0  0  0  0  0  0  0  0  0  0  0
   -2.6051    0.9408    2.1017 H   0  0  0  0  0  0  0  0  0  0  0  0
   -0.9307    1.6610    3.5980 H   0  0  0  0  0  0  0  0  0  0  0  0
   -0.0227   -0.7672    4.7480 H   0  0  0  0  0  0  0  0  0  0  0  0
   -1.3373   -2.5338    3.8293 H   0  0  0  0  0  0  0  0  0  0  0  0
   -0.3529   -1.9163    2.5033 H   0  0  0  0  0  0  0  0  0  0  0  0
   -2.0752   -1.4985    2.6140 H   0  0  0  0  0  0  0  0  0  0  0  0
   -2.3336   -0.9477    5.5339 H   0  0  0  0  0  0  0  0  0  0  0  0
   -2.8664    0.2481    4.3408 H   0  0  0  0  0  0  0  0  0  0  0  0
   -1.7502    0.7156    5.6425 H   0  0  0  0  0  0  0  0  0  0  0  0
    2.2420    2.6879    4.6002 H   0  0  0  0  0  0  0  0  0  0  0  0
    0.8075    2.1407    5.5055 H   0  0  0  0  0  0  0  0  0  0  0  0
    0.6279    3.2051    4.0775 H   0  0  0  0  0  0  0  0  0  0  0  0
    3.3939   -1.9168    3.5550 H   0  0  0  0  0  0  0  0  0  0  0  0
    2.6320   -2.4866    2.0694 H   0  0  0  0  0  0  0  0  0  0  0  0
    3.1650    0.5837    0.8239 H   0  0  0  0  0  0  0  0  0  0  0  0
    5.0851    1.3921   -0.4176 H   0  0  0  0  0  0  0  0  0  0  0  0
    7.4479   -1.8937    1.0859 H   0  0  0  0  0  0  0  0  0  0  0  0
    5.5236   -2.6731    2.3804 H   0  0  0  0  0  0  0  0  0  0  0  0
    8.4183   -0.3468   -0.3215 H   0  0  0  0  0  0  0  0  0  0  0  0
    9.3249    1.7311   -2.5562 H   0  0  0  0  0  0  0  0  0  0  0  0
    9.6453    2.9676    0.2346 H   0  0  0  0  0  0  0  0  0  0  0  0
    9.1697    3.8273   -1.2105 H   0  0  0  0  0  0  0  0  0  0  0  0
   11.9123    2.5718   -0.6572 H   0  0  0  0  0  0  0  0  0  0  0  0
   11.5034    4.2717   -0.5368 H   0  0  0  0  0  0  0  0  0  0  0  0
   11.4124    2.6849   -3.1670 H   0  0  0  0  0  0  0  0  0  0  0  0
   12.7650    3.6727   -2.6108 H   0  0  0  0  0  0  0  0  0  0  0  0
   11.3559    5.6424   -2.7063 H   0  0  0  0  0  0  0  0  0  0  0  0
    8.7731    5.9605   -4.8518 H   0  0  0  0  0  0  0  0  0  0  0  0
   10.2923    6.6320   -4.4917 H   0  0  0  0  0  0  0  0  0  0  0  0
   10.5505    0.5554   -0.0888 H   0  0  0  0  0  0  0  0  0  0  0  0
   11.0275   -2.1634   -0.8142 H   0  0  0  0  0  0  0  0  0  0  0  0
   11.8458   -2.4684   -3.1624 H   0  0  0  0  0  0  0  0  0  0  0  0
   14.0377   -2.9710   -1.0913 H   0  0  0  0  0  0  0  0  0  0  0  0
   12.6055   -3.9901   -1.3425 H   0  0  0  0  0  0  0  0  0  0  0  0
   13.8043   -3.8101   -2.6301 H   0  0  0  0  0  0  0  0  0  0  0  0
   12.9590   -0.2521   -3.4933 H   0  0  0  0  0  0  0  0  0  0  0  0
   14.2366   -0.7290   -2.3570 H   0  0  0  0  0  0  0  0  0  0  0  0
   14.0248   -1.6109   -3.8739 H   0  0  0  0  0  0  0  0  0  0  0  0
   12.9547    0.1031   -0.5305 H   0  0  0  0  0  0  0  0  0  0  0  0
   13.0740    0.1585    2.3600 H   0  0  0  0  0  0  0  0  0  0  0  0
   14.3881    0.0272    1.1988 H   0  0  0  0  0  0  0  0  0  0  0  0
   14.9683   -0.7880    3.5168 H   0  0  0  0  0  0  0  0  0  0  0  0
   13.7270   -2.0190    3.3867 H   0  0  0  0  0  0  0  0  0  0  0  0
   14.9792   -3.0546    1.4357 H   0  0  0  0  0  0  0  0  0  0  0  0
   15.7867   -3.0757    2.9895 H   0  0  0  0  0  0  0  0  0  0  0  0
   17.5732   -2.4014    1.8084 H   0  0  0  0  0  0  0  0  0  0  0  0
   16.9239   -0.8073    2.1265 H   0  0  0  0  0  0  0  0  0  0  0  0
   15.8267   -0.8433   -0.1627 H   0  0  0  0  0  0  0  0  0  0  0  0
   16.4970   -2.4644   -0.4338 H   0  0  0  0  0  0  0  0  0  0  0  0
   20.9309   -0.8652   -1.6234 H   0  0  0  0  0  0  0  0  0  0  0  0
   20.0670    1.5290   -0.7825 H   0  0  0  0  0  0  0  0  0  0  0  0
  1  2  1  0
  2  3  1  0
  3  4  1  0
  3  5  1  0
  5  6  1  0
  6  7  1  0
  7  8  1  0
  8  9  2  0
  8 10  1  0
 10 11  1  0
 11 12  1  0
 12 13  1  0
 13 14  1  0
 14 15  1  0
 15 16  1  0
 16 17  1  0
 16 18  1  0
 18 19  2  0
 18 20  1  0
 20 21  1  0
 21 22  1  0
 21 23  1  0
 23 24  1  0
 24 25  2  0
 25 26  1  0
 26 27  2  0
 27 28  1  0
 28 29  2  0
 23 30  1  0
 15 31  1  0
 31 32  1  0
  6 33  1  0
 33 34  1  0
  5 35  1  0
 35 36  1  0
 35 37  1  0
 37 38  2  0
 37 39  1  0
 39 40  1  0
 40 41  1  0
 40 42  1  0
 39 43  1  0
 43 44  1  0
 44 45  2  0
 44 46  1  0
 46 47  1  0
 47 48  1  0
 47 49  1  0
 46 50  1  0
 50 51  1  0
 50 52  1  0
 52 53  2  0
 52 54  1  0
 54 55  1  0
 55 56  1  0
 56 57  1  0
 57 58  2  0
 58 59  1  0
 59 60  2  0
 60 61  1  0
 59 62  1  0
 62 63  1  0
 63 64  2  0
 63 65  1  0
 65 66  1  0
 66 67  1  0
 67 68  1  0
 68 69  1  0
 69 70  1  0
 70 71  2  0
 70 72  1  0
 65 73  1  0
 73 74  1  0
 74 75  2  0
 74 76  1  0
 76 77  1  0
 77 78  1  0
 77 79  1  0
 76 80  1  0
 80 81  1  0
 81 82  2  0
 81 83  1  0
 83 84  1  0
 84 85  1  0
 85 86  1  0
 86 87  1  0
 87 88  1  0
 88 89  1  0
 89 90  2  0
 89 91  1  0
 91 92  2  0
 92 93  1  0
 93 94  2  0
 14 10  1  0
 29 24  1  0
 61 56  2  0
 93 88  1  0
  1 95  1  0
  1 96  1  0
  1 97  1  0
  2 98  1  0
  2 99  1  0
  3100  1  1
  4101  1  0
  4102  1  0
  4103  1  0
  5104  1  6
  6105  1  6
  7106  1  0
  7107  1  0
 11108  1  0
 11109  1  0
 12110  1  0
 12111  1  0
 13112  1  0
 13113  1  0
 14114  1  1
 15115  1  6
 16116  1  6
 17117  1  0
 17118  1  0
 17119  1  0
 20120  1  0
 21121  1  6
 22122  1  0
 22123  1  0
 22124  1  0
 23125  1  1
 25126  1  0
 26127  1  0
 27128  1  0
 28129  1  0
 29130  1  0
 30131  1  0
 32132  1  0
 32133  1  0
 32134  1  0
 34135  1  0
 34136  1  0
 34137  1  0
 36138  1  0
 36139  1  0
 36140  1  0
 39141  1  6
 40142  1  0
 41143  1  0
 41144  1  0
 41145  1  0
 42146  1  0
 42147  1  0
 42148  1  0
 43149  1  0
 46150  1  1
 47151  1  0
 48152  1  0
 48153  1  0
 48154  1  0
 49155  1  0
 49156  1  0
 49157  1  0
 51158  1  0
 51159  1  0
 51160  1  0
 55161  1  0
 55162  1  0
 57163  1  0
 58164  1  0
 60165  1  0
 61166  1  0
 62167  1  0
 65168  1  6
 66169  1  0
 66170  1  0
 67171  1  0
 67172  1  0
 68173  1  0
 68174  1  0
 69175  1  0
 72176  1  0
 72177  1  0
 73178  1  0
 76179  1  1
 77180  1  0
 78181  1  0
 78182  1  0
 78183  1  0
 79184  1  0
 79185  1  0
 79186  1  0
 80187  1  0
 83188  1  0
 83189  1  0
 84190  1  0
 84191  1  0
 85192  1  0
 85193  1  0
 86194  1  0
 86195  1  0
 87196  1  0
 87197  1  0
 91198  1  0
 92199  1  0
M  END
$$$$

     RDKit          3D

199202  0  0  0  0  0  0  0  0999 V2000
   -7.1398   -2.5416    2.5475 C   0  0  0  0  0  0  0  0  0  0  0  0
   -8.0420   -1.5691    1.8029 C   0  0  0  0  0  0  0  0  0  0  0  0
   -7.6444   -1.1992    0.3541 C   0  0  2  0  0  0  0  0  0  0  0  0
   -7.2273   -2.4489   -0.4373 C   0  0  0  0  0  0  0  0  0  0  0  0
   -6.6115   -0.0290    0.1584 C   0  0  1  0  0  0  0  0  0  0  0  0
   -7.2467    1.4183    0.1879 C   0  0  1  0  0  0  0  0  0  0  0  0
   -7.9412    1.9280   -1.0966 C   0  0  0  0  0  0  0  0  0  0  0  0
   -8.7225    0.9611   -1.9698 C   0  0  0  0  0  0  0  0  0  0  0  0
   -8.1183    0.0495   -2.5417 O   0  0  0  0  0  0  0  0  0  0  0  0
  -10.0596    1.1871   -2.2192 N   0  0  0  0  0  0  0  0  0  0  0  0
  -10.6974    0.4920   -3.3240 C   0  0  0  0  0  0  0  0  0  0  0  0
  -11.8140    1.4373   -3.7333 C   0  0  0  0  0  0  0  0  0  0  0  0
  -12.3060    1.9531   -2.3925 C   0  0  0  0  0  0  0  0  0  0  0  0
  -11.0323    2.0717   -1.5336 C   0  0  1  0  0  0  0  0  0  0  0  0
  -11.2705    1.6744   -0.0488 C   0  0  1  0  0  0  0  0  0  0  0  0
  -12.1580    2.6203    0.7927 C   0  0  1  0  0  0  0  0  0  0  0  0
  -11.7105    4.0811    0.6767 C   0  0  0  0  0  0  0  0  0  0  0  0
  -13.6852    2.5265    0.6202 C   0  0  0  0  0  0  0  0  0  0  0  0
  -14.4129    3.4829    0.8599 O   0  0  0  0  0  0  0  0  0  0  0  0
  -14.1704    1.2686    0.3746 N   0  0  0  0  0  0  0  0  0  0  0  0
  -15.5988    0.9367    0.2877 C   0  0  2  0  0  0  0  0  0  0  0  0
  -16.1579    0.7692    1.7041 C   0  0  0  0  0  0  0  0  0  0  0  0
  -15.7807   -0.3501   -0.5698 C   0  0  1  0  0  0  0  0  0  0  0  0
  -17.1787   -0.9214   -0.6428 C   0  0  0  0  0  0  0  0  0  0  0  0
  -18.2721   -0.1365   -1.0314 C   0  0  0  0  0  0  0  0  0  0  0  0
  -19.5503   -0.6979   -1.1141 C   0  0  0  0  0  0  0  0  0  0  0  0
  -19.7452   -2.0455   -0.8189 C   0  0  0  0  0  0  0  0  0  0  0  0
  -18.6657   -2.8373   -0.4409 C   0  0  0  0  0  0  0  0  0  0  0  0
  -17.3886   -2.2791   -0.3538 C   0  0  0  0  0  0  0  0  0  0  0  0
  -15.3180   -0.0868   -1.9010 O   0  0  0  0  0  0  0  0  0  0  0  0
  -11.7176    0.3034    0.0207 O   0  0  0  0  0  0  0  0  0  0  0  0
  -11.4379   -0.3161    1.2725 C   0  0  0  0  0  0  0  0  0  0  0  0
   -8.1319    1.5736    1.3140 O   0  0  0  0  0  0  0  0  0  0  0  0
   -8.1068    2.8832    1.8747 C   0  0  0  0  0  0  0  0  0  0  0  0
   -5.4241   -0.1629    1.0691 N   0  0  0  0  0  0  0  0  0  0  0  0
   -5.4384    0.5252    2.3582 C   0  0  0  0  0  0  0  0  0  0  0  0
   -4.2785   -0.8110    0.5934 C   0  0  0  0  0  0  0  0  0  0  0  0
   -4.2459   -1.3835   -0.5024 O   0  0  0  0  0  0  0  0  0  0  0  0
   -3.0178   -0.8470    1.5025 C   0  0  1  0  0  0  0  0  0  0  0  0
   -3.0078   -2.0544    2.4640 C   0  0  0  0  0  0  0  0  0  0  0  0
   -2.8267   -3.4077    1.7697 C   0  0  0  0  0  0  0  0  0  0  0  0
   -1.9196   -1.8694    3.5284 C   0  0  0  0  0  0  0  0  0  0  0  0
   -1.8189   -0.8165    0.6611 N   0  0  0  0  0  0  0  0  0  0  0  0
   -1.2759    0.4041    0.3071 C   0  0  0  0  0  0  0  0  0  0  0  0
   -1.7340    1.4718    0.7194 O   0  0  0  0  0  0  0  0  0  0  0  0
   -0.0064    0.3179   -0.5717 C   0  0  1  0  0  0  0  0  0  0  0  0
   -0.2312    1.0286   -1.9292 C   0  0  0  0  0  0  0  0  0  0  0  0
    1.0305    0.9683   -2.7922 C   0  0  0  0  0  0  0  0  0  0  0  0
   -1.3941    0.3907   -2.7005 C   0  0  0  0  0  0  0  0  0  0  0  0
    1.1375    0.8721    0.2011 N   0  0  0  0  0  0  0  0  0  0  0  0
    1.0512    2.2306    0.7139 C   0  0  0  0  0  0  0  0  0  0  0  0
    2.0818    0.0542    0.8083 C   0  0  0  0  0  0  0  0  0  0  0  0
    2.7991    0.4248    1.7349 O   0  0  0  0  0  0  0  0  0  0  0  0
    2.1621   -1.1757    0.2375 O   0  0  0  0  0  0  0  0  0  0  0  0
    3.1492   -2.0536    0.8041 C   0  0  0  0  0  0  0  0  0  0  0  0
    4.5668   -1.7102    0.4136 C   0  0  0  0  0  0  0  0  0  0  0  0
    4.8910   -1.3252   -0.8931 C   0  0  0  0  0  0  0  0  0  0  0  0
    6.2161   -1.0355   -1.2448 C   0  0  0  0  0  0  0  0  0  0  0  0
    7.2451   -1.1403   -0.3040 C   0  0  0  0  0  0  0  0  0  0  0  0
    6.9233   -1.5463    0.9957 C   0  0  0  0  0  0  0  0  0  0  0  0
    5.5988   -1.8216    1.3535 C   0  0  0  0  0  0  0  0  0  0  0  0
    8.6044   -0.8932   -0.5851 N   0  0  0  0  0  0  0  0  0  0  0  0
    9.1576   -0.4420   -1.7735 C   0  0  0  0  0  0  0  0  0  0  0  0
    8.5276   -0.0404   -2.7520 O   0  0  0  0  0  0  0  0  0  0  0  0
   10.7007   -0.5642   -1.7881 C   0  0  1  0  0  0  0  0  0  0  0  0
   11.3133   -0.2700   -3.1625 C   0  0  0  0  0  0  0  0  0  0  0  0
   11.0759   -1.3825   -4.1933 C   0  0  0  0  0  0  0  0  0  0  0  0
   12.1322   -2.4957   -4.1663 C   0  0  0  0  0  0  0  0  0  0  0  0
   12.2145   -3.2115   -2.9081 N   0  0  0  0  0  0  0  0  0  0  0  0
   11.2562   -4.1243   -2.5667 C   0  0  0  0  0  0  0  0  0  0  0  0
   10.2379   -4.3690   -3.1963 O   0  0  0  0  0  0  0  0  0  0  0  0
   11.5485   -4.7503   -1.3966 N   0  0  0  0  0  0  0  0  0  0  0  0
   11.3088    0.3110   -0.7772 N   0  0  0  0  0  0  0  0  0  0  0  0
   11.7229   -0.1819    0.4381 C   0  0  0  0  0  0  0  0  0  0  0  0
   11.4168   -1.3112    0.8319 O   0  0  0  0  0  0  0  0  0  0  0  0
   12.6399    0.7493    1.2572 C   0  0  1  0  0  0  0  0  0  0  0  0
   11.8630    1.4963    2.3559 C   0  0  0  0  0  0  0  0  0  0  0  0
   12.7905    2.3763    3.2102 C   0  0  0  0  0  0  0  0  0  0  0  0
   10.7520    2.3738    1.7745 C   0  0  0  0  0  0  0  0  0  0  0  0
   13.6536   -0.1531    1.8123 N   0  0  0  0  0  0  0  0  0  0  0  0
   14.9796    0.1992    1.9381 C   0  0  0  0  0  0  0  0  0  0  0  0
   15.4047    1.3181    1.6885 O   0  0  0  0  0  0  0  0  0  0  0  0
   15.8503   -0.9569    2.4006 C   0  0  0  0  0  0  0  0  0  0  0  0
   17.2950   -0.5769    2.7282 C   0  0  0  0  0  0  0  0  0  0  0  0
   18.2720   -0.6133    1.5442 C   0  0  0  0  0  0  0  0  0  0  0  0
   18.2373    0.6071    0.6233 C   0  0  0  0  0  0  0  0  0  0  0  0
   17.4879    0.3438   -0.6831 C   0  0  0  0  0  0  0  0  0  0  0  0
   17.4138    1.5151   -1.5401 N   0  0  0  0  0  0  0  0  0  0  0  0
   16.2658    2.1310   -1.9228 C   0  0  0  0  0  0  0  0  0  0  0  0
   15.1023    1.8807   -1.6436 O   0  0  0  0  0  0  0  0  0  0  0  0
   16.6477    3.2376   -2.8109 C   0  0  0  0  0  0  0  0  0  0  0  0
   17.9757    3.2348   -2.9228 C   0  0  0  0  0  0  0  0  0  0  0  0
   18.4905    2.1164   -2.1182 C   0  0  0  0  0  0  0  0  0  0  0  0
   19.6714    1.8666   -2.0059 O   0  0  0  0  0  0  0  0  0  0  0  0
   -7.1778   -3.5413    2.1070 H   0  0  0  0  0  0  0  0  0  0  0  0
   -6.1043   -2.2153    2.5631 H   0  0  0  0  0  0  0  0  0  0  0  0
   -7.4760   -2.6281    3.5867 H   0  0  0  0  0  0  0  0  0  0  0  0
   -9.0306   -2.0413    1.7668 H   0  0  0  0  0  0  0  0  0  0  0  0
   -8.1706   -0.6677    2.4035 H   0  0  0  0  0  0  0  0  0  0  0  0
   -8.5786   -0.8656   -0.1182 H   0  0  0  0  0  0  0  0  0  0  0  0
   -7.0494   -2.2055   -1.4886 H   0  0  0  0  0  0  0  0  0  0  0  0
   -6.3154   -2.9097   -0.0429 H   0  0  0  0  0  0  0  0  0  0  0  0
   -8.0254   -3.1992   -0.4107 H   0  0  0  0  0  0  0  0  0  0  0  0
   -6.2034   -0.1225   -0.8555 H   0  0  0  0  0  0  0  0  0  0  0  0
   -6.4047    2.1081    0.3457 H   0  0  0  0  0  0  0  0  0  0  0  0
   -7.1576    2.3058   -1.7634 H   0  0  0  0  0  0  0  0  0  0  0  0
   -8.5581    2.7946   -0.8747 H   0  0  0  0  0  0  0  0  0  0  0  0
   -9.9965    0.3020   -4.1416 H   0  0  0  0  0  0  0  0  0  0  0  0
  -11.0860   -0.4626   -2.9506 H   0  0  0  0  0  0  0  0  0  0  0  0
  -11.4170    2.2668   -4.3321 H   0  0  0  0  0  0  0  0  0  0  0  0
  -12.5971    0.9379   -4.3064 H   0  0  0  0  0  0  0  0  0  0  0  0
  -12.8483    2.9021   -2.4721 H   0  0  0  0  0  0  0  0  0  0  0  0
  -12.9953    1.2091   -1.9874 H   0  0  0  0  0  0  0  0  0  0  0  0
  -10.6239    3.0825   -1.6031 H   0  0  0  0  0  0  0  0  0  0  0  0
  -10.2856    1.7019    0.4107 H   0  0  0  0  0  0  0  0  0  0  0  0
  -12.0053    2.3343    1.8424 H   0  0  0  0  0  0  0  0  0  0  0  0
  -12.1915    4.7009    1.4453 H   0  0  0  0  0  0  0  0  0  0  0  0
  -11.9835    4.5110   -0.2919 H   0  0  0  0  0  0  0  0  0  0  0  0
  -10.6308    4.1745    0.8152 H   0  0  0  0  0  0  0  0  0  0  0  0
  -13.5170    0.5682    0.0297 H   0  0  0  0  0  0  0  0  0  0  0  0
  -16.0950    1.7843   -0.1992 H   0  0  0  0  0  0  0  0  0  0  0  0
  -15.6766   -0.0720    2.2159 H   0  0  0  0  0  0  0  0  0  0  0  0
  -15.9723    1.6627    2.3091 H   0  0  0  0  0  0  0  0  0  0  0  0
  -17.2390    0.6005    1.6987 H   0  0  0  0  0  0  0  0  0  0  0  0
  -15.1054   -1.1189   -0.1707 H   0  0  0  0  0  0  0  0  0  0  0  0
  -18.1406    0.9146   -1.2802 H   0  0  0  0  0  0  0  0  0  0  0  0
  -20.3929   -0.0814   -1.4178 H   0  0  0  0  0  0  0  0  0  0  0  0
  -20.7379   -2.4800   -0.8887 H   0  0  0  0  0  0  0  0  0  0  0  0
  -18.8108   -3.8912   -0.2182 H   0  0  0  0  0  0  0  0  0  0  0  0
  -16.5562   -2.9180   -0.0650 H   0  0  0  0  0  0  0  0  0  0  0  0
  -15.9190   -0.5372   -2.5224 H   0  0  0  0  0  0  0  0  0  0  0  0
  -11.5481   -1.3977    1.1530 H   0  0  0  0  0  0  0  0  0  0  0  0
  -10.4250   -0.0964    1.6054 H   0  0  0  0  0  0  0  0  0  0  0  0
  -12.1500    0.0180    2.0314 H   0  0  0  0  0  0  0  0  0  0  0  0
   -8.8681    2.9321    2.6558 H   0  0  0  0  0  0  0  0  0  0  0  0
   -7.1322    3.0919    2.3200 H   0  0  0  0  0  0  0  0  0  0  0  0
   -8.3381    3.6424    1.1257 H   0  0  0  0  0  0  0  0  0  0  0  0
   -4.8611   -0.0258    3.1070 H   0  0  0  0  0  0  0  0  0  0  0  0
   -4.9934    1.5176    2.2296 H   0  0  0  0  0  0  0  0  0  0  0  0
   -6.4471    0.6142    2.7573 H   0  0  0  0  0  0  0  0  0  0  0  0
   -3.0022    0.0686    2.0975 H   0  0  0  0  0  0  0  0  0  0  0  0
   -3.9641   -2.0971    2.9960 H   0  0  0  0  0  0  0  0  0  0  0  0
   -3.5965   -3.5720    1.0107 H   0  0  0  0  0  0  0  0  0  0  0  0
   -2.9094   -4.2251    2.4977 H   0  0  0  0  0  0  0  0  0  0  0  0
   -1.8450   -3.4909    1.2904 H   0  0  0  0  0  0  0  0  0  0  0  0
   -2.0991   -0.9551    4.1012 H   0  0  0  0  0  0  0  0  0  0  0  0
   -0.9253   -1.7967    3.0778 H   0  0  0  0  0  0  0  0  0  0  0  0
   -1.9113   -2.7083    4.2344 H   0  0  0  0  0  0  0  0  0  0  0  0
   -1.7528   -1.5555   -0.0307 H   0  0  0  0  0  0  0  0  0  0  0  0
    0.1801   -0.7410   -0.7734 H   0  0  0  0  0  0  0  0  0  0  0  0
   -0.4869    2.0813   -1.7680 H   0  0  0  0  0  0  0  0  0  0  0  0
    0.8505    1.4262   -3.7691 H   0  0  0  0  0  0  0  0  0  0  0  0
    1.8592    1.5081   -2.3223 H   0  0  0  0  0  0  0  0  0  0  0  0
    1.3451   -0.0670   -2.9564 H   0  0  0  0  0  0  0  0  0  0  0  0
   -1.2440   -0.6884   -2.8262 H   0  0  0  0  0  0  0  0  0  0  0  0
   -2.3497    0.5463   -2.1859 H   0  0  0  0  0  0  0  0  0  0  0  0
   -1.4872    0.8343   -3.6983 H   0  0  0  0  0  0  0  0  0  0  0  0
    2.0567    2.6283    0.8864 H   0  0  0  0  0  0  0  0  0  0  0  0
    0.5195    2.2208    1.6713 H   0  0  0  0  0  0  0  0  0  0  0  0
    0.5396    2.8844    0.0034 H   0  0  0  0  0  0  0  0  0  0  0  0
    2.9228   -3.0641    0.4413 H   0  0  0  0  0  0  0  0  0  0  0  0
    3.0256   -2.0848    1.8963 H   0  0  0  0  0  0  0  0  0  0  0  0
    4.1146   -1.2311   -1.6492 H   0  0  0  0  0  0  0  0  0  0  0  0
    6.4163   -0.7512   -2.2761 H   0  0  0  0  0  0  0  0  0  0  0  0
    7.6980   -1.6411    1.7547 H   0  0  0  0  0  0  0  0  0  0  0  0
    5.3822   -2.1205    2.3775 H   0  0  0  0  0  0  0  0  0  0  0  0
    9.2705   -1.1097    0.1533 H   0  0  0  0  0  0  0  0  0  0  0  0
   10.9226   -1.5961   -1.5043 H   0  0  0  0  0  0  0  0  0  0  0  0
   12.3933   -0.0968   -3.0665 H   0  0  0  0  0  0  0  0  0  0  0  0
   10.8944    0.6625   -3.5537 H   0  0  0  0  0  0  0  0  0  0  0  0
   10.0717   -1.8098   -4.0760 H   0  0  0  0  0  0  0  0  0  0  0  0
   11.1075   -0.9313   -5.1941 H   0  0  0  0  0  0  0  0  0  0  0  0
   11.9237   -3.2186   -4.9622 H   0  0  0  0  0  0  0  0  0  0  0  0
   13.1223   -2.0671   -4.3563 H   0  0  0  0  0  0  0  0  0  0  0  0
   13.1357   -3.5041   -2.6280 H   0  0  0  0  0  0  0  0  0  0  0  0
   11.9125   -4.1512   -0.6652 H   0  0  0  0  0  0  0  0  0  0  0  0
   10.7972   -5.3588   -1.0842 H   0  0  0  0  0  0  0  0  0  0  0  0
   11.6103    1.2312   -1.0705 H   0  0  0  0  0  0  0  0  0  0  0  0
   13.1367    1.4554    0.5871 H   0  0  0  0  0  0  0  0  0  0  0  0
   11.3959    0.7669    3.0286 H   0  0  0  0  0  0  0  0  0  0  0  0
   12.2205    2.9270    3.9700 H   0  0  0  0  0  0  0  0  0  0  0  0
   13.3190    3.1132    2.5890 H   0  0  0  0  0  0  0  0  0  0  0  0
   13.5361    1.7748    3.7409 H   0  0  0  0  0  0  0  0  0  0  0  0
    9.9800    1.7724    1.2895 H   0  0  0  0  0  0  0  0  0  0  0  0
   10.2604    2.9509    2.5699 H   0  0  0  0  0  0  0  0  0  0  0  0
   11.1541    3.0852    1.0440 H   0  0  0  0  0  0  0  0  0  0  0  0
   13.3511   -1.0945    2.0394 H   0  0  0  0  0  0  0  0  0  0  0  0
   15.8192   -1.7454    1.6409 H   0  0  0  0  0  0  0  0  0  0  0  0
   15.3932   -1.3552    3.3154 H   0  0  0  0  0  0  0  0  0  0  0  0
   17.3454    0.3947    3.2308 H   0  0  0  0  0  0  0  0  0  0  0  0
   17.6616   -1.3108    3.4544 H   0  0  0  0  0  0  0  0  0  0  0  0
   19.2815   -0.6650    1.9759 H   0  0  0  0  0  0  0  0  0  0  0  0
   18.1479   -1.5420    0.9763 H   0  0  0  0  0  0  0  0  0  0  0  0
   19.2714    0.8672    0.3746 H   0  0  0  0  0  0  0  0  0  0  0  0
   17.8400    1.4845    1.1364 H   0  0  0  0  0  0  0  0  0  0  0  0
   16.4748   -0.0246   -0.4929 H   0  0  0  0  0  0  0  0  0  0  0  0
   18.0193   -0.4337   -1.2460 H   0  0  0  0  0  0  0  0  0  0  0  0
   15.9400    3.9100   -3.2603 H   0  0  0  0  0  0  0  0  0  0  0  0
   18.6091    3.9022   -3.4819 H   0  0  0  0  0  0  0  0  0  0  0  0
  1  2  1  0
  2  3  1  0
  3  4  1  0
  3  5  1  0
  5  6  1  0
  6  7  1  0
  7  8  1  0
  8  9  2  0
  8 10  1  0
 10 11  1  0
 11 12  1  0
 12 13  1  0
 13 14  1  0
 14 15  1  0
 15 16  1  0
 16 17  1  0
 16 18  1  0
 18 19  2  0
 18 20  1  0
 20 21  1  0
 21 22  1  0
 21 23  1  0
 23 24  1  0
 24 25  2  0
 25 26  1  0
 26 27  2  0
 27 28  1  0
 28 29  2  0
 23 30  1  0
 15 31  1  0
 31 32  1  0
  6 33  1  0
 33 34  1  0
  5 35  1  0
 35 36  1  0
 35 37  1  0
 37 38  2  0
 37 39  1  0
 39 40  1  0
 40 41  1  0
 40 42  1  0
 39 43  1  0
 43 44  1  0
 44 45  2  0
 44 46  1  0
 46 47  1  0
 47 48  1  0
 47 49  1  0
 46 50  1  0
 50 51  1  0
 50 52  1  0
 52 53  2  0
 52 54  1  0
 54 55  1  0
 55 56  1  0
 56 57  1  0
 57 58  2  0
 58 59  1  0
 59 60  2  0
 60 61  1  0
 59 62  1  0
 62 63  1  0
 63 64  2  0
 63 65  1  0
 65 66  1  0
 66 67  1  0
 67 68  1  0
 68 69  1  0
 69 70  1  0
 70 71  2  0
 70 72  1  0
 65 73  1  0
 73 74  1  0
 74 75  2  0
 74 76  1  0
 76 77  1  0
 77 78  1  0
 77 79  1  0
 76 80  1  0
 80 81  1  0
 81 82  2  0
 81 83  1  0
 83 84  1  0
 84 85  1  0
 85 86  1  0
 86 87  1  0
 87 88  1  0
 88 89  1  0
 89 90  2  0
 89 91  1  0
 91 92  2  0
 92 93  1  0
 93 94  2  0
 14 10  1  0
 29 24  1  0
 61 56  2  0
 93 88  1  0
  1 95  1  0
  1 96  1  0
  1 97  1  0
  2 98  1  0
  2 99  1  0
  3100  1  6
  4101  1  0
  4102  1  0
  4103  1  0
  5104  1  6
  6105  1  1
  7106  1  0
  7107  1  0
 11108  1  0
 11109  1  0
 12110  1  0
 12111  1  0
 13112  1  0
 13113  1  0
 14114  1  1
 15115  1  1
 16116  1  1
 17117  1  0
 17118  1  0
 17119  1  0
 20120  1  0
 21121  1  6
 22122  1  0
 22123  1  0
 22124  1  0
 23125  1  1
 25126  1  0
 26127  1  0
 27128  1  0
 28129  1  0
 29130  1  0
 30131  1  0
 32132  1  0
 32133  1  0
 32134  1  0
 34135  1  0
 34136  1  0
 34137  1  0
 36138  1  0
 36139  1  0
 36140  1  0
 39141  1  1
 40142  1  0
 41143  1  0
 41144  1  0
 41145  1  0
 42146  1  0
 42147  1  0
 42148  1  0
 43149  1  0
 46150  1  6
 47151  1  0
 48152  1  0
 48153  1  0
 48154  1  0
 49155  1  0
 49156  1  0
 49157  1  0
 51158  1  0
 51159  1  0
 51160  1  0
 55161  1  0
 55162  1  0
 57163  1  0
 58164  1  0
 60165  1  0
 61166  1  0
 62167  1  0
 65168  1  1
 66169  1  0
 66170  1  0
 67171  1  0
 67172  1  0
 68173  1  0
 68174  1  0
 69175  1  0
 72176  1  0
 72177  1  0
 73178  1  0
 76179  1  6
 77180  1  0
 78181  1  0
 78182  1  0
 78183  1  0
 79184  1  0
 79185  1  0
 79186  1  0
 80187  1  0
 83188  1  0
 83189  1  0
 84190  1  0
 84191  1  0
 85192  1  0
 85193  1  0
 86194  1  0
 86195  1  0
 87196  1  0
 87197  1  0
 91198  1  0
 92199  1  0
M  END
$$$$

     RDKit          3D

199202  0  0  0  0  0  0  0  0999 V2000
   -4.3749   -2.9826   -2.0935 C   0  0  0  0  0  0  0  0  0  0  0  0
   -5.0043   -3.9650   -1.1150 C   0  0  0  0  0  0  0  0  0  0  0  0
   -4.7197   -3.6455    0.3753 C   0  0  2  0  0  0  0  0  0  0  0  0
   -5.1105   -4.8660    1.2213 C   0  0  0  0  0  0  0  0  0  0  0  0
   -5.3464   -2.2845    0.8574 C   0  0  1  0  0  0  0  0  0  0  0  0
   -6.8435   -2.3409    1.3242 C   0  0  1  0  0  0  0  0  0  0  0  0
   -7.4870   -0.9345    1.4048 C   0  0  0  0  0  0  0  0  0  0  0  0
   -7.6569   -0.2400    0.0623 C   0  0  0  0  0  0  0  0  0  0  0  0
   -7.3902   -0.8042   -0.9969 O   0  0  0  0  0  0  0  0  0  0  0  0
   -8.0906    1.0795    0.0565 N   0  0  0  0  0  0  0  0  0  0  0  0
   -7.8678    1.8405   -1.1706 C   0  0  0  0  0  0  0  0  0  0  0  0
   -7.8927    3.3048   -0.7598 C   0  0  0  0  0  0  0  0  0  0  0  0
   -7.5978    3.2435    0.7351 C   0  0  0  0  0  0  0  0  0  0  0  0
   -8.3626    1.9825    1.1868 C   0  0  1  0  0  0  0  0  0  0  0  0
   -9.8873    2.3088    1.3962 C   0  0  1  0  0  0  0  0  0  0  0  0
  -10.7033    1.1555    2.0223 C   0  0  1  0  0  0  0  0  0  0  0  0
  -12.0738    1.6015    2.5488 C   0  0  0  0  0  0  0  0  0  0  0  0
  -10.9523   -0.0197    1.0937 C   0  0  0  0  0  0  0  0  0  0  0  0
  -10.9331   -1.1670    1.5324 O   0  0  0  0  0  0  0  0  0  0  0  0
  -11.2865    0.2674   -0.2043 N   0  0  0  0  0  0  0  0  0  0  0  0
  -11.5693   -0.7954   -1.1750 C   0  0  2  0  0  0  0  0  0  0  0  0
  -11.3190   -0.2735   -2.5916 C   0  0  0  0  0  0  0  0  0  0  0  0
  -12.9732   -1.4401   -0.9819 C   0  0  1  0  0  0  0  0  0  0  0  0
  -14.1232   -0.4478   -1.0183 C   0  0  0  0  0  0  0  0  0  0  0  0
  -14.6545    0.0533    0.1812 C   0  0  0  0  0  0  0  0  0  0  0  0
  -15.6928    0.9852    0.1668 C   0  0  0  0  0  0  0  0  0  0  0  0
  -16.2166    1.4275   -1.0450 C   0  0  0  0  0  0  0  0  0  0  0  0
  -15.7067    0.9332   -2.2436 C   0  0  0  0  0  0  0  0  0  0  0  0
  -14.6667    0.0016   -2.2313 C   0  0  0  0  0  0  0  0  0  0  0  0
  -13.1894   -2.4702   -1.9514 O   0  0  0  0  0  0  0  0  0  0  0  0
   -9.9652    3.4363    2.2981 O   0  0  0  0  0  0  0  0  0  0  0  0
  -10.6986    4.5367    1.7693 C   0  0  0  0  0  0  0  0  0  0  0  0
   -7.5732   -3.2540    0.4998 O   0  0  0  0  0  0  0  0  0  0  0  0
   -8.8694   -3.5859    0.9701 C   0  0  0  0  0  0  0  0  0  0  0  0
   -4.4521   -1.6150    1.8587 N   0  0  0  0  0  0  0  0  0  0  0  0
   -4.2630   -2.2706    3.1495 C   0  0  0  0  0  0  0  0  0  0  0  0
   -3.3042   -0.9509    1.4077 C   0  0  0  0  0  0  0  0  0  0  0  0
   -2.1964   -1.1480    1.9228 O   0  0  0  0  0  0  0  0  0  0  0  0
   -3.4511    0.1337    0.3132 C   0  0  1  0  0  0  0  0  0  0  0  0
   -3.2433    1.5137    1.0032 C   0  0  0  0  0  0  0  0  0  0  0  0
   -4.2222    1.6987    2.1742 C   0  0  0  0  0  0  0  0  0  0  0  0
   -3.4000    2.6954    0.0449 C   0  0  0  0  0  0  0  0  0  0  0  0
   -2.4066   -0.2174   -0.6520 N   0  0  0  0  0  0  0  0  0  0  0  0
   -2.3023    0.2360   -1.9439 C   0  0  0  0  0  0  0  0  0  0  0  0
   -3.1004    1.0334   -2.4271 O   0  0  0  0  0  0  0  0  0  0  0  0
   -1.1823   -0.4449   -2.7971 C   0  0  1  0  0  0  0  0  0  0  0  0
   -0.4980    0.4371   -3.8751 C   0  0  0  0  0  0  0  0  0  0  0  0
   -0.0090    1.8018   -3.3909 C   0  0  0  0  0  0  0  0  0  0  0  0
   -1.4107    0.6232   -5.0943 C   0  0  0  0  0  0  0  0  0  0  0  0
   -0.2362   -1.3180   -2.0542 N   0  0  0  0  0  0  0  0  0  0  0  0
   -0.0964   -2.6848   -2.5405 C   0  0  0  0  0  0  0  0  0  0  0  0
    0.5858   -0.9096   -1.0162 C   0  0  0  0  0  0  0  0  0  0  0  0
    1.2973   -1.6843   -0.3893 O   0  0  0  0  0  0  0  0  0  0  0  0
    0.4282    0.3984   -0.7121 O   0  0  0  0  0  0  0  0  0  0  0  0
    0.7725    0.7917    0.6238 C   0  0  0  0  0  0  0  0  0  0  0  0
    2.2360    0.7222    0.9729 C   0  0  0  0  0  0  0  0  0  0  0  0
    2.6402   -0.0468    2.0704 C   0  0  0  0  0  0  0  0  0  0  0  0
    3.9889   -0.1307    2.4252 C   0  0  0  0  0  0  0  0  0  0  0  0
    4.9555    0.5591    1.6985 C   0  0  0  0  0  0  0  0  0  0  0  0
    4.5506    1.3374    0.6060 C   0  0  0  0  0  0  0  0  0  0  0  0
    3.2017    1.4105    0.2375 C   0  0  0  0  0  0  0  0  0  0  0  0
    6.3325    0.5326    1.9985 N   0  0  0  0  0  0  0  0  0  0  0  0
    6.9618   -0.1568    3.0129 C   0  0  0  0  0  0  0  0  0  0  0  0
    6.3920   -0.8388    3.8635 O   0  0  0  0  0  0  0  0  0  0  0  0
    8.4925    0.1052    3.1294 C   0  0  1  0  0  0  0  0  0  0  0  0
    9.1756   -1.0119    3.9511 C   0  0  0  0  0  0  0  0  0  0  0  0
    8.9694   -2.4607    3.4772 C   0  0  0  0  0  0  0  0  0  0  0  0
    9.3212   -2.7251    2.0154 C   0  0  0  0  0  0  0  0  0  0  0  0
    9.1991   -4.1305    1.6836 N   0  0  0  0  0  0  0  0  0  0  0  0
   10.1498   -5.0270    2.0786 C   0  0  0  0  0  0  0  0  0  0  0  0
   11.2088   -4.7496    2.6218 O   0  0  0  0  0  0  0  0  0  0  0  0
    9.7852   -6.3041    1.8071 N   0  0  0  0  0  0  0  0  0  0  0  0
    9.2756    0.3641    1.9111 N   0  0  0  0  0  0  0  0  0  0  0  0
    9.2363    1.5805    1.2590 C   0  0  0  0  0  0  0  0  0  0  0  0
    8.2489    2.3104    1.3270 O   0  0  0  0  0  0  0  0  0  0  0  0
   10.5716    2.0304    0.6120 C   0  0  1  0  0  0  0  0  0  0  0  0
   11.3666    2.9316    1.5902 C   0  0  0  0  0  0  0  0  0  0  0  0
   10.5745    4.1742    2.0145 C   0  0  0  0  0  0  0  0  0  0  0  0
   12.6924    3.3896    0.9698 C   0  0  0  0  0  0  0  0  0  0  0  0
   11.3603    0.8368    0.2576 N   0  0  0  0  0  0  0  0  0  0  0  0
   11.4338    0.3799   -1.0416 C   0  0  0  0  0  0  0  0  0  0  0  0
   10.8801    0.9415   -1.9811 O   0  0  0  0  0  0  0  0  0  0  0  0
   12.2134   -0.9066   -1.2170 C   0  0  0  0  0  0  0  0  0  0  0  0
   13.6886   -0.8414   -0.8193 C   0  0  0  0  0  0  0  0  0  0  0  0
   14.6292   -0.3548   -1.9277 C   0  0  0  0  0  0  0  0  0  0  0  0
   14.5448    1.1478   -2.2028 C   0  0  0  0  0  0  0  0  0  0  0  0
   15.5465    1.6121   -3.2670 C   0  0  0  0  0  0  0  0  0  0  0  0
   16.9279    1.4933   -2.8406 N   0  0  0  0  0  0  0  0  0  0  0  0
   17.7627    0.4781   -3.1875 C   0  0  0  0  0  0  0  0  0  0  0  0
   17.5388   -0.4973   -3.8809 O   0  0  0  0  0  0  0  0  0  0  0  0
   19.0545    0.7431   -2.5454 C   0  0  0  0  0  0  0  0  0  0  0  0
   18.9389    1.8776   -1.8524 C   0  0  0  0  0  0  0  0  0  0  0  0
   17.5664    2.3687   -2.0246 C   0  0  0  0  0  0  0  0  0  0  0  0
   17.1428    3.3827   -1.4988 O   0  0  0  0  0  0  0  0  0  0  0  0
   -4.8709   -2.0087   -2.0799 H   0  0  0  0  0  0  0  0  0  0  0  0
   -3.3155   -2.8324   -1.8657 H   0  0  0  0  0  0  0  0  0  0  0  0
   -4.4483   -3.3709   -3.1143 H   0  0  0  0  0  0  0  0  0  0  0  0
   -4.6022   -4.9591   -1.3417 H   0  0  0  0  0  0  0  0  0  0  0  0
   -6.0792   -4.0198   -1.3097 H   0  0  0  0  0  0  0  0  0  0  0  0
   -3.6272   -3.5527    0.4578 H   0  0  0  0  0  0  0  0  0  0  0  0
   -6.1434   -5.1813    1.0509 H   0  0  0  0  0  0  0  0  0  0  0  0
   -4.9852   -4.6915    2.2917 H   0  0  0  0  0  0  0  0  0  0  0  0
   -4.4729   -5.7189    0.9598 H   0  0  0  0  0  0  0  0  0  0  0  0
   -5.3265   -1.6425   -0.0181 H   0  0  0  0  0  0  0  0  0  0  0  0
   -6.8638   -2.7572    2.3368 H   0  0  0  0  0  0  0  0  0  0  0  0
   -8.4709   -1.0142    1.8693 H   0  0  0  0  0  0  0  0  0  0  0  0
   -6.8685   -0.3055    2.0504 H   0  0  0  0  0  0  0  0  0  0  0  0
   -6.8917    1.5764   -1.5948 H   0  0  0  0  0  0  0  0  0  0  0  0
   -8.6461    1.6015   -1.8998 H   0  0  0  0  0  0  0  0  0  0  0  0
   -7.1612    3.9053   -1.3077 H   0  0  0  0  0  0  0  0  0  0  0  0
   -8.8825    3.7389   -0.9449 H   0  0  0  0  0  0  0  0  0  0  0  0
   -7.8713    4.1617    1.2590 H   0  0  0  0  0  0  0  0  0  0  0  0
   -6.5212    3.1002    0.8777 H   0  0  0  0  0  0  0  0  0  0  0  0
   -7.9358    1.6060    2.1207 H   0  0  0  0  0  0  0  0  0  0  0  0
  -10.3270    2.5889    0.4314 H   0  0  0  0  0  0  0  0  0  0  0  0
  -10.1362    0.7753    2.8833 H   0  0  0  0  0  0  0  0  0  0  0  0
  -12.6394    0.7457    2.9360 H   0  0  0  0  0  0  0  0  0  0  0  0
  -12.6761    2.0595    1.7567 H   0  0  0  0  0  0  0  0  0  0  0  0
  -11.9733    2.3199    3.3700 H   0  0  0  0  0  0  0  0  0  0  0  0
  -11.6859    1.1730   -0.4098 H   0  0  0  0  0  0  0  0  0  0  0  0
  -10.8305   -1.5899   -1.0097 H   0  0  0  0  0  0  0  0  0  0  0  0
  -11.5336   -1.0374   -3.3450 H   0  0  0  0  0  0  0  0  0  0  0  0
  -11.9223    0.6145   -2.8089 H   0  0  0  0  0  0  0  0  0  0  0  0
  -10.2687    0.0179   -2.7077 H   0  0  0  0  0  0  0  0  0  0  0  0
  -12.9913   -1.9477   -0.0098 H   0  0  0  0  0  0  0  0  0  0  0  0
  -14.2590   -0.2871    1.1373 H   0  0  0  0  0  0  0  0  0  0  0  0
  -16.0942    1.3629    1.1032 H   0  0  0  0  0  0  0  0  0  0  0  0
  -17.0255    2.1537   -1.0556 H   0  0  0  0  0  0  0  0  0  0  0  0
  -16.1197    1.2722   -3.1897 H   0  0  0  0  0  0  0  0  0  0  0  0
  -14.2821   -0.3732   -3.1794 H   0  0  0  0  0  0  0  0  0  0  0  0
  -14.1307   -2.7068   -1.9023 H   0  0  0  0  0  0  0  0  0  0  0  0
  -11.7192    4.2413    1.5128 H   0  0  0  0  0  0  0  0  0  0  0  0
  -10.1954    4.9413    0.8869 H   0  0  0  0  0  0  0  0  0  0  0  0
  -10.7425    5.3153    2.5346 H   0  0  0  0  0  0  0  0  0  0  0  0
   -9.5887   -2.8780    0.5636 H   0  0  0  0  0  0  0  0  0  0  0  0
   -9.1244   -4.5770    0.5868 H   0  0  0  0  0  0  0  0  0  0  0  0
   -8.9188   -3.6126    2.0630 H   0  0  0  0  0  0  0  0  0  0  0  0
   -3.5660   -3.1083    3.0470 H   0  0  0  0  0  0  0  0  0  0  0  0
   -5.2116   -2.6049    3.5685 H   0  0  0  0  0  0  0  0  0  0  0  0
   -3.8244   -1.5514    3.8514 H   0  0  0  0  0  0  0  0  0  0  0  0
   -4.4169    0.1167   -0.1925 H   0  0  0  0  0  0  0  0  0  0  0  0
   -2.2276    1.5626    1.4188 H   0  0  0  0  0  0  0  0  0  0  0  0
   -3.9738    1.0356    3.0086 H   0  0  0  0  0  0  0  0  0  0  0  0
   -5.2478    1.4830    1.8646 H   0  0  0  0  0  0  0  0  0  0  0  0
   -4.1891    2.7193    2.5665 H   0  0  0  0  0  0  0  0  0  0  0  0
   -4.3157    2.6103   -0.5462 H   0  0  0  0  0  0  0  0  0  0  0  0
   -2.5450    2.7658   -0.6311 H   0  0  0  0  0  0  0  0  0  0  0  0
   -3.4444    3.6426    0.5920 H   0  0  0  0  0  0  0  0  0  0  0  0
   -1.7188   -0.8928   -0.3376 H   0  0  0  0  0  0  0  0  0  0  0  0
   -1.7871   -1.1738   -3.3599 H   0  0  0  0  0  0  0  0  0  0  0  0
    0.3843   -0.1054   -4.2399 H   0  0  0  0  0  0  0  0  0  0  0  0
    0.3519    2.4007   -4.2347 H   0  0  0  0  0  0  0  0  0  0  0  0
   -0.8002    2.3736   -2.8956 H   0  0  0  0  0  0  0  0  0  0  0  0
    0.8351    1.7014   -2.7039 H   0  0  0  0  0  0  0  0  0  0  0  0
   -1.7418   -0.3432   -5.4885 H   0  0  0  0  0  0  0  0  0  0  0  0
   -2.2959    1.2183   -4.8537 H   0  0  0  0  0  0  0  0  0  0  0  0
   -0.8755    1.1341   -5.9023 H   0  0  0  0  0  0  0  0  0  0  0  0
   -1.0625   -3.1906   -2.4577 H   0  0  0  0  0  0  0  0  0  0  0  0
    0.2090   -2.6535   -3.5912 H   0  0  0  0  0  0  0  0  0  0  0  0
    0.6438   -3.2555   -1.9773 H   0  0  0  0  0  0  0  0  0  0  0  0
    0.1633    0.2094    1.3239 H   0  0  0  0  0  0  0  0  0  0  0  0
    0.4451    1.8316    0.7393 H   0  0  0  0  0  0  0  0  0  0  0  0
    1.9103   -0.6085    2.6499 H   0  0  0  0  0  0  0  0  0  0  0  0
    4.2415   -0.7499    3.2800 H   0  0  0  0  0  0  0  0  0  0  0  0
    5.2839    1.8785    0.0148 H   0  0  0  0  0  0  0  0  0  0  0  0
    2.9127    2.0076   -0.6241 H   0  0  0  0  0  0  0  0  0  0  0  0
    6.9194    1.1608    1.4502 H   0  0  0  0  0  0  0  0  0  0  0  0
    8.5707    1.0307    3.7193 H   0  0  0  0  0  0  0  0  0  0  0  0
    8.8144   -0.9563    4.9857 H   0  0  0  0  0  0  0  0  0  0  0  0
   10.2534   -0.8122    3.9984 H   0  0  0  0  0  0  0  0  0  0  0  0
    9.5727   -3.1085    4.1296 H   0  0  0  0  0  0  0  0  0  0  0  0
    7.9310   -2.7711    3.6494 H   0  0  0  0  0  0  0  0  0  0  0  0
    8.6321   -2.1974    1.3506 H   0  0  0  0  0  0  0  0  0  0  0  0
   10.3436   -2.4043    1.7949 H   0  0  0  0  0  0  0  0  0  0  0  0
    8.2622   -4.5081    1.6611 H   0  0  0  0  0  0  0  0  0  0  0  0
    9.2954   -6.4571    0.9373 H   0  0  0  0  0  0  0  0  0  0  0  0
   10.5055   -6.9867    2.0117 H   0  0  0  0  0  0  0  0  0  0  0  0
   10.1745   -0.0961    1.8485 H   0  0  0  0  0  0  0  0  0  0  0  0
   10.3181    2.5809   -0.3021 H   0  0  0  0  0  0  0  0  0  0  0  0
   11.5997    2.3585    2.4979 H   0  0  0  0  0  0  0  0  0  0  0  0
   10.2160    4.7341    1.1429 H   0  0  0  0  0  0  0  0  0  0  0  0
    9.7105    3.9083    2.6332 H   0  0  0  0  0  0  0  0  0  0  0  0
   11.1961    4.8481    2.6152 H   0  0  0  0  0  0  0  0  0  0  0  0
   13.2402    4.0338    1.6668 H   0  0  0  0  0  0  0  0  0  0  0  0
   13.3410    2.5389    0.7392 H   0  0  0  0  0  0  0  0  0  0  0  0
   12.5241    3.9551    0.0462 H   0  0  0  0  0  0  0  0  0  0  0  0
   11.9889    0.4439    0.9435 H   0  0  0  0  0  0  0  0  0  0  0  0
   11.7124   -1.6585   -0.5928 H   0  0  0  0  0  0  0  0  0  0  0  0
   12.1059   -1.2441   -2.2545 H   0  0  0  0  0  0  0  0  0  0  0  0
   13.9987   -1.8630   -0.5646 H   0  0  0  0  0  0  0  0  0  0  0  0
   13.8416   -0.2421    0.0839 H   0  0  0  0  0  0  0  0  0  0  0  0
   15.6506   -0.6080   -1.6169 H   0  0  0  0  0  0  0  0  0  0  0  0
   14.4357   -0.9166   -2.8505 H   0  0  0  0  0  0  0  0  0  0  0  0
   14.7084    1.7020   -1.2726 H   0  0  0  0  0  0  0  0  0  0  0  0
   13.5413    1.3959   -2.5610 H   0  0  0  0  0  0  0  0  0  0  0  0
   15.3606    2.6700   -3.4906 H   0  0  0  0  0  0  0  0  0  0  0  0
   15.4063    1.0399   -4.1924 H   0  0  0  0  0  0  0  0  0  0  0  0
   19.9126    0.1013   -2.6531 H   0  0  0  0  0  0  0  0  0  0  0  0
   19.6819    2.3799   -1.2587 H   0  0  0  0  0  0  0  0  0  0  0  0
  1  2  1  0
  2  3  1  0
  3  4  1  0
  3  5  1  0
  5  6  1  0
  6  7  1  0
  7  8  1  0
  8  9  2  0
  8 10  1  0
 10 11  1  0
 11 12  1  0
 12 13  1  0
 13 14  1  0
 14 15  1  0
 15 16  1  0
 16 17  1  0
 16 18  1  0
 18 19  2  0
 18 20  1  0
 20 21  1  0
 21 22  1  0
 21 23  1  0
 23 24  1  0
 24 25  2  0
 25 26  1  0
 26 27  2  0
 27 28  1  0
 28 29  2  0
 23 30  1  0
 15 31  1  0
 31 32  1  0
  6 33  1  0
 33 34  1  0
  5 35  1  0
 35 36  1  0
 35 37  1  0
 37 38  2  0
 37 39  1  0
 39 40  1  0
 40 41  1  0
 40 42  1  0
 39 43  1  0
 43 44  1  0
 44 45  2  0
 44 46  1  0
 46 47  1  0
 47 48  1  0
 47 49  1  0
 46 50  1  0
 50 51  1  0
 50 52  1  0
 52 53  2  0
 52 54  1  0
 54 55  1  0
 55 56  1  0
 56 57  1  0
 57 58  2  0
 58 59  1  0
 59 60  2  0
 60 61  1  0
 59 62  1  0
 62 63  1  0
 63 64  2  0
 63 65  1  0
 65 66  1  0
 66 67  1  0
 67 68  1  0
 68 69  1  0
 69 70  1  0
 70 71  2  0
 70 72  1  0
 65 73  1  0
 73 74  1  0
 74 75  2  0
 74 76  1  0
 76 77  1  0
 77 78  1  0
 77 79  1  0
 76 80  1  0
 80 81  1  0
 81 82  2  0
 81 83  1  0
 83 84  1  0
 84 85  1  0
 85 86  1  0
 86 87  1  0
 87 88  1  0
 88 89  1  0
 89 90  2  0
 89 91  1  0
 91 92  2  0
 92 93  1  0
 93 94  2  0
 14 10  1  0
 29 24  1  0
 61 56  2  0
 93 88  1  0
  1 95  1  0
  1 96  1  0
  1 97  1  0
  2 98  1  0
  2 99  1  0
  3100  1  6
  4101  1  0
  4102  1  0
  4103  1  0
  5104  1  6
  6105  1  1
  7106  1  0
  7107  1  0
 11108  1  0
 11109  1  0
 12110  1  0
 12111  1  0
 13112  1  0
 13113  1  0
 14114  1  1
 15115  1  6
 16116  1  1
 17117  1  0
 17118  1  0
 17119  1  0
 20120  1  0
 21121  1  1
 22122  1  0
 22123  1  0
 22124  1  0
 23125  1  1
 25126  1  0
 26127  1  0
 27128  1  0
 28129  1  0
 29130  1  0
 30131  1  0
 32132  1  0
 32133  1  0
 32134  1  0
 34135  1  0
 34136  1  0
 34137  1  0
 36138  1  0
 36139  1  0
 36140  1  0
 39141  1  6
 40142  1  0
 41143  1  0
 41144  1  0
 41145  1  0
 42146  1  0
 42147  1  0
 42148  1  0
 43149  1  0
 46150  1  6
 47151  1  0
 48152  1  0
 48153  1  0
 48154  1  0
 49155  1  0
 49156  1  0
 49157  1  0
 51158  1  0
 51159  1  0
 51160  1  0
 55161  1  0
 55162  1  0
 57163  1  0
 58164  1  0
 60165  1  0
 61166  1  0
 62167  1  0
 65168  1  1
 66169  1  0
 66170  1  0
 67171  1  0
 67172  1  0
 68173  1  0
 68174  1  0
 69175  1  0
 72176  1  0
 72177  1  0
 73178  1  0
 76179  1  6
 77180  1  0
 78181  1  0
 78182  1  0
 78183  1  0
 79184  1  0
 79185  1  0
 79186  1  0
 80187  1  0
 83188  1  0
 83189  1  0
 84190  1  0
 84191  1  0
 85192  1  0
 85193  1  0
 86194  1  0
 86195  1  0
 87196  1  0
 87197  1  0
 91198  1  0
 92199  1  0
M  END
$$$$

     RDKit          3D

199202  0  0  0  0  0  0  0  0999 V2000
   -8.2411    2.4827   -3.0599 C   0  0  0  0  0  0  0  0  0  0  0  0
   -7.6640    2.4248   -1.6505 C   0  0  0  0  0  0  0  0  0  0  0  0
   -7.3291    0.9880   -1.1809 C   0  0  2  0  0  0  0  0  0  0  0  0
   -8.5644    0.0886   -1.2060 C   0  0  0  0  0  0  0  0  0  0  0  0
   -6.4958    1.0059    0.1439 C   0  0  1  0  0  0  0  0  0  0  0  0
   -7.0997    1.5863    1.4816 C   0  0  1  0  0  0  0  0  0  0  0  0
   -8.2966    0.8992    2.1493 C   0  0  0  0  0  0  0  0  0  0  0  0
   -9.6349    1.2146    1.5191 C   0  0  0  0  0  0  0  0  0  0  0  0
   -9.8262    2.3006    0.9701 O   0  0  0  0  0  0  0  0  0  0  0  0
  -10.6478    0.2785    1.6410 N   0  0  0  0  0  0  0  0  0  0  0  0
  -10.4752   -1.1140    2.0380 C   0  0  0  0  0  0  0  0  0  0  0  0
  -11.5517   -1.8681    1.2792 C   0  0  0  0  0  0  0  0  0  0  0  0
  -12.6786   -0.8551    1.2042 C   0  0  0  0  0  0  0  0  0  0  0  0
  -11.9498    0.4747    0.9646 C   0  0  1  0  0  0  0  0  0  0  0  0
  -12.7458    1.7420    1.4107 C   0  0  1  0  0  0  0  0  0  0  0  0
  -13.4976    2.4428    0.2532 C   0  0  1  0  0  0  0  0  0  0  0  0
  -12.5375    3.1371   -0.7194 C   0  0  0  0  0  0  0  0  0  0  0  0
  -14.4740    1.5421   -0.5034 C   0  0  0  0  0  0  0  0  0  0  0  0
  -14.4169    1.3651   -1.7166 O   0  0  0  0  0  0  0  0  0  0  0  0
  -15.4842    1.0372    0.2861 N   0  0  0  0  0  0  0  0  0  0  0  0
  -16.6363    0.3125   -0.2649 C   0  0  2  0  0  0  0  0  0  0  0  0
  -17.8776    0.7253    0.5294 C   0  0  0  0  0  0  0  0  0  0  0  0
  -16.4419   -1.2360   -0.2697 C   0  0  1  0  0  0  0  0  0  0  0  0
  -17.6180   -1.9998   -0.8590 C   0  0  0  0  0  0  0  0  0  0  0  0
  -18.2444   -3.0086   -0.1121 C   0  0  0  0  0  0  0  0  0  0  0  0
  -19.3283   -3.7140   -0.6403 C   0  0  0  0  0  0  0  0  0  0  0  0
  -19.7940   -3.4263   -1.9213 C   0  0  0  0  0  0  0  0  0  0  0  0
  -19.1736   -2.4363   -2.6796 C   0  0  0  0  0  0  0  0  0  0  0  0
  -18.0904   -1.7290   -2.1545 C   0  0  0  0  0  0  0  0  0  0  0  0
  -15.2608   -1.6042   -0.9869 O   0  0  0  0  0  0  0  0  0  0  0  0
  -13.7129    1.4607    2.4497 O   0  0  0  0  0  0  0  0  0  0  0  0
  -13.1432    1.5120    3.7546 C   0  0  0  0  0  0  0  0  0  0  0  0
   -6.0691    1.5802    2.5066 O   0  0  0  0  0  0  0  0  0  0  0  0
   -5.2438    2.7389    2.4836 C   0  0  0  0  0  0  0  0  0  0  0  0
   -5.6300   -0.2201    0.2777 N   0  0  0  0  0  0  0  0  0  0  0  0
   -6.2464   -1.5052    0.5404 C   0  0  0  0  0  0  0  0  0  0  0  0
   -4.2610   -0.0918   -0.0084 C   0  0  0  0  0  0  0  0  0  0  0  0
   -3.7283    1.0247   -0.0701 O   0  0  0  0  0  0  0  0  0  0  0  0
   -3.3751   -1.3782   -0.2087 C   0  0  1  0  0  0  0  0  0  0  0  0
   -3.8080   -2.4158   -1.2833 C   0  0  0  0  0  0  0  0  0  0  0  0
   -4.2704   -1.8514   -2.6262 C   0  0  0  0  0  0  0  0  0  0  0  0
   -2.7500   -3.5038   -1.5031 C   0  0  0  0  0  0  0  0  0  0  0  0
   -1.9579   -0.9874   -0.2656 N   0  0  0  0  0  0  0  0  0  0  0  0
   -1.4070   -0.2276   -1.2817 C   0  0  0  0  0  0  0  0  0  0  0  0
   -1.9578   -0.0795   -2.3676 O   0  0  0  0  0  0  0  0  0  0  0  0
    0.0308    0.2982   -0.9814 C   0  0  1  0  0  0  0  0  0  0  0  0
    0.3641    1.6932   -1.5930 C   0  0  0  0  0  0  0  0  0  0  0  0
    0.1069    1.7931   -3.1028 C   0  0  0  0  0  0  0  0  0  0  0  0
    1.8407    2.0560   -1.3563 C   0  0  0  0  0  0  0  0  0  0  0  0
    0.2850    0.2482    0.4916 N   0  0  0  0  0  0  0  0  0  0  0  0
   -0.2777    1.2994    1.3334 C   0  0  0  0  0  0  0  0  0  0  0  0
    1.1003   -0.7073    1.0832 C   0  0  0  0  0  0  0  0  0  0  0  0
    1.3683   -0.7263    2.2781 O   0  0  0  0  0  0  0  0  0  0  0  0
    1.5637   -1.6197    0.1907 O   0  0  0  0  0  0  0  0  0  0  0  0
    2.5507   -2.5435    0.6790 C   0  0  0  0  0  0  0  0  0  0  0  0
    3.9502   -2.0007    0.4916 C   0  0  0  0  0  0  0  0  0  0  0  0
    4.2334   -1.0204   -0.4646 C   0  0  0  0  0  0  0  0  0  0  0  0
    5.5276   -0.5195   -0.6174 C   0  0  0  0  0  0  0  0  0  0  0  0
    6.5793   -1.0194    0.1541 C   0  0  0  0  0  0  0  0  0  0  0  0
    6.3151   -2.0242    1.0841 C   0  0  0  0  0  0  0  0  0  0  0  0
    5.0115   -2.5067    1.2534 C   0  0  0  0  0  0  0  0  0  0  0  0
    7.8482   -0.4491   -0.0643 N   0  0  0  0  0  0  0  0  0  0  0  0
    9.0618   -0.8441    0.4718 C   0  0  0  0  0  0  0  0  0  0  0  0
    9.2585   -1.7731    1.2474 O   0  0  0  0  0  0  0  0  0  0  0  0
   10.2214    0.0741    0.0365 C   0  0  1  0  0  0  0  0  0  0  0  0
   10.3244    1.3288    0.9175 C   0  0  0  0  0  0  0  0  0  0  0  0
   10.3219    1.1118    2.4386 C   0  0  0  0  0  0  0  0  0  0  0  0
   11.5199    0.3362    2.9722 C   0  0  0  0  0  0  0  0  0  0  0  0
   11.5183    0.3066    4.4226 N   0  0  0  0  0  0  0  0  0  0  0  0
   12.5788   -0.2557    5.0742 C   0  0  0  0  0  0  0  0  0  0  0  0
   13.6044   -0.6718    4.5590 O   0  0  0  0  0  0  0  0  0  0  0  0
   12.3728   -0.3149    6.4141 N   0  0  0  0  0  0  0  0  0  0  0  0
   11.4560   -0.6905   -0.0250 N   0  0  0  0  0  0  0  0  0  0  0  0
   12.4026   -0.4350   -0.9890 C   0  0  0  0  0  0  0  0  0  0  0  0
   12.3125    0.5240   -1.7600 O   0  0  0  0  0  0  0  0  0  0  0  0
   13.5407   -1.4745   -1.0955 C   0  0  1  0  0  0  0  0  0  0  0  0
   13.0082   -2.8367   -1.5984 C   0  0  0  0  0  0  0  0  0  0  0  0
   12.3630   -2.7625   -2.9876 C   0  0  0  0  0  0  0  0  0  0  0  0
   14.1179   -3.8920   -1.5969 C   0  0  0  0  0  0  0  0  0  0  0  0
   14.5588   -0.9204   -1.9870 N   0  0  0  0  0  0  0  0  0  0  0  0
   15.6517   -0.2506   -1.4750 C   0  0  0  0  0  0  0  0  0  0  0  0
   15.9418   -0.2406   -0.2860 O   0  0  0  0  0  0  0  0  0  0  0  0
   16.4696    0.4415   -2.5525 C   0  0  0  0  0  0  0  0  0  0  0  0
   17.6785    1.1605   -1.9598 C   0  0  0  0  0  0  0  0  0  0  0  0
   18.6162    1.7037   -3.0362 C   0  0  0  0  0  0  0  0  0  0  0  0
   19.6845    2.6704   -2.5071 C   0  0  0  0  0  0  0  0  0  0  0  0
   20.7243    2.0579   -1.5603 C   0  0  0  0  0  0  0  0  0  0  0  0
   20.2281    1.7950   -0.2228 N   0  0  0  0  0  0  0  0  0  0  0  0
   20.2241    0.5766    0.3775 C   0  0  0  0  0  0  0  0  0  0  0  0
   20.6061   -0.4963   -0.0598 O   0  0  0  0  0  0  0  0  0  0  0  0
   19.6648    0.7570    1.7200 C   0  0  0  0  0  0  0  0  0  0  0  0
   19.4306    2.0590    1.8896 C   0  0  0  0  0  0  0  0  0  0  0  0
   19.8294    2.7479    0.6573 C   0  0  0  0  0  0  0  0  0  0  0  0
   19.8020    3.9568    0.5195 O   0  0  0  0  0  0  0  0  0  0  0  0
   -8.3938    3.5249   -3.3574 H   0  0  0  0  0  0  0  0  0  0  0  0
   -9.2073    1.9748   -3.1221 H   0  0  0  0  0  0  0  0  0  0  0  0
   -7.5589    2.0229   -3.7815 H   0  0  0  0  0  0  0  0  0  0  0  0
   -6.7515    3.0347   -1.6387 H   0  0  0  0  0  0  0  0  0  0  0  0
   -8.3655    2.9024   -0.9616 H   0  0  0  0  0  0  0  0  0  0  0  0
   -6.6505    0.5773   -1.9423 H   0  0  0  0  0  0  0  0  0  0  0  0
   -8.6596   -0.3790   -2.1937 H   0  0  0  0  0  0  0  0  0  0  0  0
   -8.5282   -0.7194   -0.4765 H   0  0  0  0  0  0  0  0  0  0  0  0
   -9.4850    0.6521   -1.0492 H   0  0  0  0  0  0  0  0  0  0  0  0
   -5.7677    1.7903   -0.0926 H   0  0  0  0  0  0  0  0  0  0  0  0
   -7.3787    2.6314    1.2932 H   0  0  0  0  0  0  0  0  0  0  0  0
   -8.3814    1.2869    3.1762 H   0  0  0  0  0  0  0  0  0  0  0  0
   -8.1115   -0.1584    2.2906 H   0  0  0  0  0  0  0  0  0  0  0  0
  -10.6268   -1.1720    3.1208 H   0  0  0  0  0  0  0  0  0  0  0  0
   -9.4912   -1.5089    1.7833 H   0  0  0  0  0  0  0  0  0  0  0  0
  -11.8414   -2.7993    1.7716 H   0  0  0  0  0  0  0  0  0  0  0  0
  -11.2017   -2.1091    0.2687 H   0  0  0  0  0  0  0  0  0  0  0  0
  -13.3754   -1.0875    0.4032 H   0  0  0  0  0  0  0  0  0  0  0  0
  -13.2273   -0.8730    2.1505 H   0  0  0  0  0  0  0  0  0  0  0  0
  -11.6951    0.5510   -0.0986 H   0  0  0  0  0  0  0  0  0  0  0  0
  -12.0579    2.4949    1.8137 H   0  0  0  0  0  0  0  0  0  0  0  0
  -14.1223    3.2337    0.6938 H   0  0  0  0  0  0  0  0  0  0  0  0
  -11.8918    3.8458   -0.1904 H   0  0  0  0  0  0  0  0  0  0  0  0
  -13.0946    3.7016   -1.4735 H   0  0  0  0  0  0  0  0  0  0  0  0
  -11.9024    2.4247   -1.2551 H   0  0  0  0  0  0  0  0  0  0  0  0
  -15.3357    1.0587    1.2929 H   0  0  0  0  0  0  0  0  0  0  0  0
  -16.7575    0.6605   -1.2977 H   0  0  0  0  0  0  0  0  0  0  0  0
  -17.8103    0.3898    1.5703 H   0  0  0  0  0  0  0  0  0  0  0  0
  -18.7938    0.3141    0.0973 H   0  0  0  0  0  0  0  0  0  0  0  0
  -17.9822    1.8155    0.5421 H   0  0  0  0  0  0  0  0  0  0  0  0
  -16.2750   -1.5603    0.7656 H   0  0  0  0  0  0  0  0  0  0  0  0
  -17.8934   -3.2545    0.8877 H   0  0  0  0  0  0  0  0  0  0  0  0
  -19.8093   -4.4918   -0.0515 H   0  0  0  0  0  0  0  0  0  0  0  0
  -20.6373   -3.9764   -2.3310 H   0  0  0  0  0  0  0  0  0  0  0  0
  -19.5336   -2.2146   -3.6816 H   0  0  0  0  0  0  0  0  0  0  0  0
  -17.6154   -0.9655   -2.7702 H   0  0  0  0  0  0  0  0  0  0  0  0
  -15.5197   -2.0559   -1.8084 H   0  0  0  0  0  0  0  0  0  0  0  0
  -12.3305    0.7877    3.8617 H   0  0  0  0  0  0  0  0  0  0  0  0
  -12.7815    2.5225    3.9724 H   0  0  0  0  0  0  0  0  0  0  0  0
  -13.9263    1.2637    4.4745 H   0  0  0  0  0  0  0  0  0  0  0  0
   -5.8362    3.6254    2.7278 H   0  0  0  0  0  0  0  0  0  0  0  0
   -4.7552    2.8724    1.5164 H   0  0  0  0  0  0  0  0  0  0  0  0
   -4.4699    2.6201    3.2470 H   0  0  0  0  0  0  0  0  0  0  0  0
   -6.5971   -1.9325   -0.4021 H   0  0  0  0  0  0  0  0  0  0  0  0
   -5.5417   -2.1889    1.0139 H   0  0  0  0  0  0  0  0  0  0  0  0
   -7.0855   -1.4062    1.2199 H   0  0  0  0  0  0  0  0  0  0  0  0
   -3.4197   -1.8996    0.7565 H   0  0  0  0  0  0  0  0  0  0  0  0
   -4.6757   -2.9476   -0.8809 H   0  0  0  0  0  0  0  0  0  0  0  0
   -3.4359   -1.6341   -3.2998 H   0  0  0  0  0  0  0  0  0  0  0  0
   -4.8909   -2.5961   -3.1416 H   0  0  0  0  0  0  0  0  0  0  0  0
   -4.8774   -0.9498   -2.5137 H   0  0  0  0  0  0  0  0  0  0  0  0
   -1.8523   -3.1101   -1.9938 H   0  0  0  0  0  0  0  0  0  0  0  0
   -2.4519   -3.9574   -0.5524 H   0  0  0  0  0  0  0  0  0  0  0  0
   -3.1482   -4.3018   -2.1400 H   0  0  0  0  0  0  0  0  0  0  0  0
   -1.5001   -0.8585    0.6304 H   0  0  0  0  0  0  0  0  0  0  0  0
    0.6826   -0.4297   -1.4796 H   0  0  0  0  0  0  0  0  0  0  0  0
   -0.2552    2.4587   -1.1090 H   0  0  0  0  0  0  0  0  0  0  0  0
    0.5324    2.7162   -3.5115 H   0  0  0  0  0  0  0  0  0  0  0  0
   -0.9622    1.8296   -3.3268 H   0  0  0  0  0  0  0  0  0  0  0  0
    0.5511    0.9488   -3.6411 H   0  0  0  0  0  0  0  0  0  0  0  0
    2.1267    1.9843   -0.3026 H   0  0  0  0  0  0  0  0  0  0  0  0
    2.5016    1.3978   -1.9305 H   0  0  0  0  0  0  0  0  0  0  0  0
    2.0394    3.0851   -1.6754 H   0  0  0  0  0  0  0  0  0  0  0  0
    0.3559    2.1869    1.2664 H   0  0  0  0  0  0  0  0  0  0  0  0
   -0.3220    0.9824    2.3796 H   0  0  0  0  0  0  0  0  0  0  0  0
   -1.2887    1.5447    1.0002 H   0  0  0  0  0  0  0  0  0  0  0  0
    2.4504   -3.4585    0.0850 H   0  0  0  0  0  0  0  0  0  0  0  0
    2.3627   -2.8113    1.7255 H   0  0  0  0  0  0  0  0  0  0  0  0
    3.4444   -0.6251   -1.0967 H   0  0  0  0  0  0  0  0  0  0  0  0
    5.6934    0.2595   -1.3548 H   0  0  0  0  0  0  0  0  0  0  0  0
    7.0992   -2.4456    1.7046 H   0  0  0  0  0  0  0  0  0  0  0  0
    4.8331   -3.2841    1.9946 H   0  0  0  0  0  0  0  0  0  0  0  0
    7.8744    0.2980   -0.7489 H   0  0  0  0  0  0  0  0  0  0  0  0
   10.0090    0.4060   -0.9891 H   0  0  0  0  0  0  0  0  0  0  0  0
    9.4662    1.9753    0.6876 H   0  0  0  0  0  0  0  0  0  0  0  0
   11.2194    1.8987    0.6410 H   0  0  0  0  0  0  0  0  0  0  0  0
    9.3939    0.6167    2.7492 H   0  0  0  0  0  0  0  0  0  0  0  0
   10.3013    2.0997    2.9186 H   0  0  0  0  0  0  0  0  0  0  0  0
   11.5055   -0.7031    2.6349 H   0  0  0  0  0  0  0  0  0  0  0  0
   12.4588    0.7881    2.6349 H   0  0  0  0  0  0  0  0  0  0  0  0
   10.6372    0.0813    4.8633 H   0  0  0  0  0  0  0  0  0  0  0  0
   11.9467    0.5058    6.8214 H   0  0  0  0  0  0  0  0  0  0  0  0
   13.1970   -0.6367    6.9100 H   0  0  0  0  0  0  0  0  0  0  0  0
   11.5061   -1.5414    0.5340 H   0  0  0  0  0  0  0  0  0  0  0  0
   13.9630   -1.5970   -0.0911 H   0  0  0  0  0  0  0  0  0  0  0  0
   12.2321   -3.1840   -0.9027 H   0  0  0  0  0  0  0  0  0  0  0  0
   13.0760   -2.4344   -3.7503 H   0  0  0  0  0  0  0  0  0  0  0  0
   11.9855   -3.7451   -3.2886 H   0  0  0  0  0  0  0  0  0  0  0  0
   11.5146   -2.0720   -2.9959 H   0  0  0  0  0  0  0  0  0  0  0  0
   14.9076   -3.6471   -2.3146 H   0  0  0  0  0  0  0  0  0  0  0  0
   13.7164   -4.8742   -1.8653 H   0  0  0  0  0  0  0  0  0  0  0  0
   14.5726   -3.9777   -0.6047 H   0  0  0  0  0  0  0  0  0  0  0  0
   14.2076   -0.5647   -2.8693 H   0  0  0  0  0  0  0  0  0  0  0  0
   16.7969   -0.3169   -3.2718 H   0  0  0  0  0  0  0  0  0  0  0  0
   15.8266    1.1602   -3.0741 H   0  0  0  0  0  0  0  0  0  0  0  0
   17.3340    1.9755   -1.3101 H   0  0  0  0  0  0  0  0  0  0  0  0
   18.2224    0.4512   -1.3320 H   0  0  0  0  0  0  0  0  0  0  0  0
   18.0242    2.2370   -3.7898 H   0  0  0  0  0  0  0  0  0  0  0  0
   19.1018    0.8671   -3.5546 H   0  0  0  0  0  0  0  0  0  0  0  0
   20.2248    3.0603   -3.3803 H   0  0  0  0  0  0  0  0  0  0  0  0
   19.1944    3.5331   -2.0406 H   0  0  0  0  0  0  0  0  0  0  0  0
   21.1334    1.1376   -1.9910 H   0  0  0  0  0  0  0  0  0  0  0  0
   21.5510    2.7711   -1.4527 H   0  0  0  0  0  0  0  0  0  0  0  0
   19.4863   -0.0539    2.4047 H   0  0  0  0  0  0  0  0  0  0  0  0
   19.0205    2.5613    2.7469 H   0  0  0  0  0  0  0  0  0  0  0  0
  1  2  1  0
  2  3  1  0
  3  4  1  0
  3  5  1  0
  5  6  1  0
  6  7  1  0
  7  8  1  0
  8  9  2  0
  8 10  1  0
 10 11  1  0
 11 12  1  0
 12 13  1  0
 13 14  1  0
 14 15  1  0
 15 16  1  0
 16 17  1  0
 16 18  1  0
 18 19  2  0
 18 20  1  0
 20 21  1  0
 21 22  1  0
 21 23  1  0
 23 24  1  0
 24 25  2  0
 25 26  1  0
 26 27  2  0
 27 28  1  0
 28 29  2  0
 23 30  1  0
 15 31  1  0
 31 32  1  0
  6 33  1  0
 33 34  1  0
  5 35  1  0
 35 36  1  0
 35 37  1  0
 37 38  2  0
 37 39  1  0
 39 40  1  0
 40 41  1  0
 40 42  1  0
 39 43  1  0
 43 44  1  0
 44 45  2  0
 44 46  1  0
 46 47  1  0
 47 48  1  0
 47 49  1  0
 46 50  1  0
 50 51  1  0
 50 52  1  0
 52 53  2  0
 52 54  1  0
 54 55  1  0
 55 56  1  0
 56 57  1  0
 57 58  2  0
 58 59  1  0
 59 60  2  0
 60 61  1  0
 59 62  1  0
 62 63  1  0
 63 64  2  0
 63 65  1  0
 65 66  1  0
 66 67  1  0
 67 68  1  0
 68 69  1  0
 69 70  1  0
 70 71  2  0
 70 72  1  0
 65 73  1  0
 73 74  1  0
 74 75  2  0
 74 76  1  0
 76 77  1  0
 77 78  1  0
 77 79  1  0
 76 80  1  0
 80 81  1  0
 81 82  2  0
 81 83  1  0
 83 84  1  0
 84 85  1  0
 85 86  1  0
 86 87  1  0
 87 88  1  0
 88 89  1  0
 89 90  2  0
 89 91  1  0
 91 92  2  0
 92 93  1  0
 93 94  2  0
 14 10  1  0
 29 24  1  0
 61 56  2  0
 93 88  1  0
  1 95  1  0
  1 96  1  0
  1 97  1  0
  2 98  1  0
  2 99  1  0
  3100  1  6
  4101  1  0
  4102  1  0
  4103  1  0
  5104  1  6
  6105  1  6
  7106  1  0
  7107  1  0
 11108  1  0
 11109  1  0
 12110  1  0
 12111  1  0
 13112  1  0
 13113  1  0
 14114  1  6
 15115  1  1
 16116  1  1
 17117  1  0
 17118  1  0
 17119  1  0
 20120  1  0
 21121  1  6
 22122  1  0
 22123  1  0
 22124  1  0
 23125  1  1
 25126  1  0
 26127  1  0
 27128  1  0
 28129  1  0
 29130  1  0
 30131  1  0
 32132  1  0
 32133  1  0
 32134  1  0
 34135  1  0
 34136  1  0
 34137  1  0
 36138  1  0
 36139  1  0
 36140  1  0
 39141  1  1
 40142  1  0
 41143  1  0
 41144  1  0
 41145  1  0
 42146  1  0
 42147  1  0
 42148  1  0
 43149  1  0
 46150  1  6
 47151  1  0
 48152  1  0
 48153  1  0
 48154  1  0
 49155  1  0
 49156  1  0
 49157  1  0
 51158  1  0
 51159  1  0
 51160  1  0
 55161  1  0
 55162  1  0
 57163  1  0
 58164  1  0
 60165  1  0
 61166  1  0
 62167  1  0
 65168  1  6
 66169  1  0
 66170  1  0
 67171  1  0
 67172  1  0
 68173  1  0
 68174  1  0
 69175  1  0
 72176  1  0
 72177  1  0
 73178  1  0
 76179  1  1
 77180  1  0
 78181  1  0
 78182  1  0
 78183  1  0
 79184  1  0
 79185  1  0
 79186  1  0
 80187  1  0
 83188  1  0
 83189  1  0
 84190  1  0
 84191  1  0
 85192  1  0
 85193  1  0
 86194  1  0
 86195  1  0
 87196  1  0
 87197  1  0
 91198  1  0
 92199  1  0
M  END
$$$$

     RDKit          3D

199202  0  0  0  0  0  0  0  0999 V2000
   -4.9088   -4.0883   -2.3708 C   0  0  0  0  0  0  0  0  0  0  0  0
   -5.6622   -3.7884   -1.0743 C   0  0  0  0  0  0  0  0  0  0  0  0
   -5.0787   -2.5834   -0.2938 C   0  0  2  0  0  0  0  0  0  0  0  0
   -5.5106   -2.7153    1.1713 C   0  0  0  0  0  0  0  0  0  0  0  0
   -5.3824   -1.2091   -0.9979 C   0  0  1  0  0  0  0  0  0  0  0  0
   -6.5558   -0.2924   -0.4822 C   0  0  1  0  0  0  0  0  0  0  0  0
   -7.9236   -0.9564   -0.7470 C   0  0  0  0  0  0  0  0  0  0  0  0
   -9.0685    0.0353   -0.9480 C   0  0  0  0  0  0  0  0  0  0  0  0
   -8.8742    1.2341   -1.1300 O   0  0  0  0  0  0  0  0  0  0  0  0
  -10.3451   -0.5099   -0.9641 N   0  0  0  0  0  0  0  0  0  0  0  0
  -10.6377   -1.9386   -1.0630 C   0  0  0  0  0  0  0  0  0  0  0  0
  -11.9314   -1.9962   -1.8551 C   0  0  0  0  0  0  0  0  0  0  0  0
  -12.6644   -0.7447   -1.3936 C   0  0  0  0  0  0  0  0  0  0  0  0
  -11.5533    0.3056   -1.2592 C   0  0  1  0  0  0  0  0  0  0  0  0
  -11.8488    1.4564   -0.2376 C   0  0  1  0  0  0  0  0  0  0  0  0
  -12.6815    2.6486   -0.7820 C   0  0  1  0  0  0  0  0  0  0  0  0
  -12.0826    3.2653   -2.0497 C   0  0  0  0  0  0  0  0  0  0  0  0
  -14.1702    2.3812   -0.9912 C   0  0  0  0  0  0  0  0  0  0  0  0
  -14.6881    1.2723   -1.0501 O   0  0  0  0  0  0  0  0  0  0  0  0
  -14.9199    3.5348   -1.1499 N   0  0  0  0  0  0  0  0  0  0  0  0
  -16.3772    3.4825   -1.2909 C   0  0  2  0  0  0  0  0  0  0  0  0
  -16.8821    4.7706   -1.9475 C   0  0  0  0  0  0  0  0  0  0  0  0
  -17.1226    3.1306    0.0372 C   0  0  1  0  0  0  0  0  0  0  0  0
  -17.0853    4.2365    1.0772 C   0  0  0  0  0  0  0  0  0  0  0  0
  -18.1204    5.1838    1.1777 C   0  0  0  0  0  0  0  0  0  0  0  0
  -18.0540    6.2160    2.1199 C   0  0  0  0  0  0  0  0  0  0  0  0
  -16.9557    6.3207    2.9715 C   0  0  0  0  0  0  0  0  0  0  0  0
  -15.9308    5.3814    2.8929 C   0  0  0  0  0  0  0  0  0  0  0  0
  -15.9918    4.3475    1.9512 C   0  0  0  0  0  0  0  0  0  0  0  0
  -18.4788    2.7758   -0.2517 O   0  0  0  0  0  0  0  0  0  0  0  0
  -12.4855    1.0236    0.9801 O   0  0  0  0  0  0  0  0  0  0  0  0
  -11.6026    0.4258    1.9140 C   0  0  0  0  0  0  0  0  0  0  0  0
   -6.4612   -0.0582    0.9253 O   0  0  0  0  0  0  0  0  0  0  0  0
   -6.4498    1.3177    1.2622 C   0  0  0  0  0  0  0  0  0  0  0  0
   -4.1133   -0.4506   -1.2800 N   0  0  0  0  0  0  0  0  0  0  0  0
   -3.7243   -0.3691   -2.6817 C   0  0  0  0  0  0  0  0  0  0  0  0
   -3.2380   -0.1409   -0.2400 C   0  0  0  0  0  0  0  0  0  0  0  0
   -3.5964   -0.1564    0.9428 O   0  0  0  0  0  0  0  0  0  0  0  0
   -1.7229    0.0824   -0.5592 C   0  0  1  0  0  0  0  0  0  0  0  0
   -1.2314    1.5339   -0.3215 C   0  0  0  0  0  0  0  0  0  0  0  0
   -1.6962    2.4739   -1.4440 C   0  0  0  0  0  0  0  0  0  0  0  0
   -1.6240    2.1293    1.0360 C   0  0  0  0  0  0  0  0  0  0  0  0
   -1.0321   -0.8657    0.3328 N   0  0  0  0  0  0  0  0  0  0  0  0
   -1.0779   -2.2125   -0.0192 C   0  0  0  0  0  0  0  0  0  0  0  0
   -1.2052   -2.5821   -1.1832 O   0  0  0  0  0  0  0  0  0  0  0  0
   -1.2012   -3.1529    1.2009 C   0  0  1  0  0  0  0  0  0  0  0  0
   -1.6180   -4.6082    0.8311 C   0  0  0  0  0  0  0  0  0  0  0  0
   -2.1961   -5.3589    2.0346 C   0  0  0  0  0  0  0  0  0  0  0  0
   -0.5530   -5.4725    0.1553 C   0  0  0  0  0  0  0  0  0  0  0  0
   -0.1307   -2.9723    2.1944 N   0  0  0  0  0  0  0  0  0  0  0  0
   -0.5216   -2.8284    3.5823 C   0  0  0  0  0  0  0  0  0  0  0  0
    1.1374   -3.4888    1.9610 C   0  0  0  0  0  0  0  0  0  0  0  0
    1.8037   -4.0356    2.8374 O   0  0  0  0  0  0  0  0  0  0  0  0
    1.5440   -3.3404    0.6739 O   0  0  0  0  0  0  0  0  0  0  0  0
    2.7187   -4.0730    0.2929 C   0  0  0  0  0  0  0  0  0  0  0  0
    4.0395   -3.4356    0.6739 C   0  0  0  0  0  0  0  0  0  0  0  0
    4.6219   -3.7236    1.9106 C   0  0  0  0  0  0  0  0  0  0  0  0
    5.8736   -3.2067    2.2526 C   0  0  0  0  0  0  0  0  0  0  0  0
    6.5871   -2.4036    1.3571 C   0  0  0  0  0  0  0  0  0  0  0  0
    6.0026   -2.0806    0.1345 C   0  0  0  0  0  0  0  0  0  0  0  0
    4.7309   -2.5869   -0.2023 C   0  0  0  0  0  0  0  0  0  0  0  0
    7.8838   -2.0319    1.7517 N   0  0  0  0  0  0  0  0  0  0  0  0
    8.8571   -1.3649    1.0235 C   0  0  0  0  0  0  0  0  0  0  0  0
    8.7036   -0.7896   -0.0486 O   0  0  0  0  0  0  0  0  0  0  0  0
   10.2445   -1.4611    1.7098 C   0  0  1  0  0  0  0  0  0  0  0  0
   10.7350   -2.9238    1.7582 C   0  0  0  0  0  0  0  0  0  0  0  0
   10.9756   -3.5389    0.3757 C   0  0  0  0  0  0  0  0  0  0  0  0
   11.4781   -4.9732    0.5039 C   0  0  0  0  0  0  0  0  0  0  0  0
   11.7246   -5.5698   -0.7896 N   0  0  0  0  0  0  0  0  0  0  0  0
   12.9660   -5.5329   -1.3622 C   0  0  0  0  0  0  0  0  0  0  0  0
   13.9183   -4.8797   -0.9500 O   0  0  0  0  0  0  0  0  0  0  0  0
   13.0668   -6.3210   -2.4650 N   0  0  0  0  0  0  0  0  0  0  0  0
   11.2365   -0.6179    1.0718 N   0  0  0  0  0  0  0  0  0  0  0  0
   12.3714   -0.2165    1.7403 C   0  0  0  0  0  0  0  0  0  0  0  0
   12.5603   -0.5110    2.9192 O   0  0  0  0  0  0  0  0  0  0  0  0
   13.4733    0.4096    0.8624 C   0  0  1  0  0  0  0  0  0  0  0  0
   14.4168   -0.6842    0.2915 C   0  0  0  0  0  0  0  0  0  0  0  0
   14.9615   -1.6339    1.3701 C   0  0  0  0  0  0  0  0  0  0  0  0
   15.6094   -0.0453   -0.4357 C   0  0  0  0  0  0  0  0  0  0  0  0
   12.8720    1.1808   -0.2352 N   0  0  0  0  0  0  0  0  0  0  0  0
   12.3779    2.4451   -0.0227 C   0  0  0  0  0  0  0  0  0  0  0  0
   12.1725    2.8958    1.0916 O   0  0  0  0  0  0  0  0  0  0  0  0
   12.0848    3.1926   -1.3063 C   0  0  0  0  0  0  0  0  0  0  0  0
   11.9425    4.7018   -1.1054 C   0  0  0  0  0  0  0  0  0  0  0  0
   13.2024    5.4164   -0.5977 C   0  0  0  0  0  0  0  0  0  0  0  0
   14.4004    5.3227   -1.5404 C   0  0  0  0  0  0  0  0  0  0  0  0
   15.5998    6.0836   -0.9672 C   0  0  0  0  0  0  0  0  0  0  0  0
   16.7627    5.9690   -1.8239 N   0  0  0  0  0  0  0  0  0  0  0  0
   17.0922    6.8334   -2.8149 C   0  0  0  0  0  0  0  0  0  0  0  0
   16.5169    7.8427   -3.1722 O   0  0  0  0  0  0  0  0  0  0  0  0
   18.3182    6.3280   -3.4412 C   0  0  0  0  0  0  0  0  0  0  0  0
   18.6440    5.1876   -2.8308 C   0  0  0  0  0  0  0  0  0  0  0  0
   17.6353    4.9264   -1.8036 C   0  0  0  0  0  0  0  0  0  0  0  0
   17.6230    3.9309   -1.1019 O   0  0  0  0  0  0  0  0  0  0  0  0
   -3.8519   -4.2983   -2.1802 H   0  0  0  0  0  0  0  0  0  0  0  0
   -4.9772   -3.2555   -3.0771 H   0  0  0  0  0  0  0  0  0  0  0  0
   -5.3414   -4.9713   -2.8540 H   0  0  0  0  0  0  0  0  0  0  0  0
   -6.7192   -3.6263   -1.2986 H   0  0  0  0  0  0  0  0  0  0  0  0
   -5.6067   -4.6942   -0.4555 H   0  0  0  0  0  0  0  0  0  0  0  0
   -3.9915   -2.7341   -0.2954 H   0  0  0  0  0  0  0  0  0  0  0  0
   -5.1869   -3.6813    1.5751 H   0  0  0  0  0  0  0  0  0  0  0  0
   -5.0509   -1.9530    1.8071 H   0  0  0  0  0  0  0  0  0  0  0  0
   -6.5956   -2.6729    1.2856 H   0  0  0  0  0  0  0  0  0  0  0  0
   -5.7188   -1.4745   -2.0096 H   0  0  0  0  0  0  0  0  0  0  0  0
   -6.4836    0.6495   -1.0389 H   0  0  0  0  0  0  0  0  0  0  0  0
   -7.8743   -1.5367   -1.6725 H   0  0  0  0  0  0  0  0  0  0  0  0
   -8.1915   -1.6147    0.0853 H   0  0  0  0  0  0  0  0  0  0  0  0
  -10.7705   -2.3172   -0.0448 H   0  0  0  0  0  0  0  0  0  0  0  0
   -9.8430   -2.5083   -1.5568 H   0  0  0  0  0  0  0  0  0  0  0  0
  -12.4986   -2.9132   -1.6874 H   0  0  0  0  0  0  0  0  0  0  0  0
  -11.7160   -1.9147   -2.9271 H   0  0  0  0  0  0  0  0  0  0  0  0
  -13.4220   -0.4540   -2.1255 H   0  0  0  0  0  0  0  0  0  0  0  0
  -13.1562   -0.9461   -0.4347 H   0  0  0  0  0  0  0  0  0  0  0  0
  -11.3474    0.7370   -2.2473 H   0  0  0  0  0  0  0  0  0  0  0  0
  -10.8851    1.9036    0.0486 H   0  0  0  0  0  0  0  0  0  0  0  0
  -12.6429    3.4164    0.0062 H   0  0  0  0  0  0  0  0  0  0  0  0
  -12.2847    2.6484   -2.9327 H   0  0  0  0  0  0  0  0  0  0  0  0
  -12.5151    4.2499   -2.2480 H   0  0  0  0  0  0  0  0  0  0  0  0
  -10.9990    3.3967   -1.9523 H   0  0  0  0  0  0  0  0  0  0  0  0
  -14.5275    4.4017   -0.8021 H   0  0  0  0  0  0  0  0  0  0  0  0
  -16.5928    2.6729   -1.9953 H   0  0  0  0  0  0  0  0  0  0  0  0
  -17.9701    4.7606   -2.0616 H   0  0  0  0  0  0  0  0  0  0  0  0
  -16.5980    5.6530   -1.3689 H   0  0  0  0  0  0  0  0  0  0  0  0
  -16.4393    4.8837   -2.9476 H   0  0  0  0  0  0  0  0  0  0  0  0
  -16.6720    2.2356    0.4878 H   0  0  0  0  0  0  0  0  0  0  0  0
  -18.9820    5.1211    0.5156 H   0  0  0  0  0  0  0  0  0  0  0  0
  -18.8641    6.9399    2.1830 H   0  0  0  0  0  0  0  0  0  0  0  0
  -16.9048    7.1296    3.6968 H   0  0  0  0  0  0  0  0  0  0  0  0
  -15.0736    5.4553    3.5601 H   0  0  0  0  0  0  0  0  0  0  0  0
  -15.1832    3.6229    1.9106 H   0  0  0  0  0  0  0  0  0  0  0  0
  -18.4444    1.9027   -0.6824 H   0  0  0  0  0  0  0  0  0  0  0  0
  -10.7886    1.1100    2.1711 H   0  0  0  0  0  0  0  0  0  0  0  0
  -11.2014   -0.5172    1.5389 H   0  0  0  0  0  0  0  0  0  0  0  0
  -12.1712    0.2164    2.8215 H   0  0  0  0  0  0  0  0  0  0  0  0
   -5.6574    1.8448    0.7251 H   0  0  0  0  0  0  0  0  0  0  0  0
   -6.2642    1.4150    2.3381 H   0  0  0  0  0  0  0  0  0  0  0  0
   -7.4221    1.7709    1.0435 H   0  0  0  0  0  0  0  0  0  0  0  0
   -3.2950   -1.3284   -2.9885 H   0  0  0  0  0  0  0  0  0  0  0  0
   -4.6039   -0.1454   -3.2905 H   0  0  0  0  0  0  0  0  0  0  0  0
   -2.9962    0.4268   -2.8497 H   0  0  0  0  0  0  0  0  0  0  0  0
   -1.4758   -0.2166   -1.5821 H   0  0  0  0  0  0  0  0  0  0  0  0
   -0.1345    1.5182   -0.3545 H   0  0  0  0  0  0  0  0  0  0  0  0
   -1.3312    2.1219   -2.4158 H   0  0  0  0  0  0  0  0  0  0  0  0
   -2.7875    2.5391   -1.4838 H   0  0  0  0  0  0  0  0  0  0  0  0
   -1.3018    3.4842   -1.2960 H   0  0  0  0  0  0  0  0  0  0  0  0
   -1.2931    1.4924    1.8614 H   0  0  0  0  0  0  0  0  0  0  0  0
   -1.1588    3.1109    1.1747 H   0  0  0  0  0  0  0  0  0  0  0  0
   -2.7024    2.2722    1.1236 H   0  0  0  0  0  0  0  0  0  0  0  0
   -1.2028   -0.7058    1.3205 H   0  0  0  0  0  0  0  0  0  0  0  0
   -2.1039   -2.7414    1.6893 H   0  0  0  0  0  0  0  0  0  0  0  0
   -2.4336   -4.5148    0.1022 H   0  0  0  0  0  0  0  0  0  0  0  0
   -1.4082   -5.6492    2.7376 H   0  0  0  0  0  0  0  0  0  0  0  0
   -2.6996   -6.2717    1.7008 H   0  0  0  0  0  0  0  0  0  0  0  0
   -2.9308   -4.7447    2.5723 H   0  0  0  0  0  0  0  0  0  0  0  0
   -1.0042   -6.4036   -0.2028 H   0  0  0  0  0  0  0  0  0  0  0  0
   -0.1144   -4.9712   -0.7148 H   0  0  0  0  0  0  0  0  0  0  0  0
    0.2463   -5.7557    0.8476 H   0  0  0  0  0  0  0  0  0  0  0  0
    0.3286   -2.4722    4.1731 H   0  0  0  0  0  0  0  0  0  0  0  0
   -0.8378   -3.7915    3.9922 H   0  0  0  0  0  0  0  0  0  0  0  0
   -1.3221   -2.0895    3.6615 H   0  0  0  0  0  0  0  0  0  0  0  0
    2.6660   -5.1033    0.6732 H   0  0  0  0  0  0  0  0  0  0  0  0
    2.6753   -4.1658   -0.8029 H   0  0  0  0  0  0  0  0  0  0  0  0
    4.1255   -4.3778    2.6222 H   0  0  0  0  0  0  0  0  0  0  0  0
    6.2771   -3.4542    3.2284 H   0  0  0  0  0  0  0  0  0  0  0  0
    6.5252   -1.4678   -0.5914 H   0  0  0  0  0  0  0  0  0  0  0  0
    4.3070   -2.3477   -1.1720 H   0  0  0  0  0  0  0  0  0  0  0  0
    8.1718   -2.3917    2.6601 H   0  0  0  0  0  0  0  0  0  0  0  0
   10.1185   -1.0954    2.7378 H   0  0  0  0  0  0  0  0  0  0  0  0
   11.6741   -2.9678    2.3309 H   0  0  0  0  0  0  0  0  0  0  0  0
   10.0088   -3.5423    2.3067 H   0  0  0  0  0  0  0  0  0  0  0  0
   10.0496   -3.5277   -0.2127 H   0  0  0  0  0  0  0  0  0  0  0  0
   11.7092   -2.9447   -0.1827 H   0  0  0  0  0  0  0  0  0  0  0  0
   12.3936   -5.0127    1.1051 H   0  0  0  0  0  0  0  0  0  0  0  0
   10.7318   -5.5957    1.0055 H   0  0  0  0  0  0  0  0  0  0  0  0
   11.1103   -6.3241   -1.0722 H   0  0  0  0  0  0  0  0  0  0  0  0
   14.0127   -6.6334   -2.6702 H   0  0  0  0  0  0  0  0  0  0  0  0
   12.3222   -6.9448   -2.7247 H   0  0  0  0  0  0  0  0  0  0  0  0
   11.0695   -0.2939    0.1202 H   0  0  0  0  0  0  0  0  0  0  0  0
   14.0323    1.1029    1.5008 H   0  0  0  0  0  0  0  0  0  0  0  0
   13.8703   -1.2940   -0.4344 H   0  0  0  0  0  0  0  0  0  0  0  0
   14.1663   -2.2704    1.7784 H   0  0  0  0  0  0  0  0  0  0  0  0
   15.7177   -2.3043    0.9520 H   0  0  0  0  0  0  0  0  0  0  0  0
   15.4167   -1.0797    2.1905 H   0  0  0  0  0  0  0  0  0  0  0  0
   16.1887    0.5861    0.2432 H   0  0  0  0  0  0  0  0  0  0  0  0
   15.2825    0.5669   -1.2828 H   0  0  0  0  0  0  0  0  0  0  0  0
   16.2759   -0.8206   -0.8364 H   0  0  0  0  0  0  0  0  0  0  0  0
   13.0317    0.8618   -1.1898 H   0  0  0  0  0  0  0  0  0  0  0  0
   11.1429    2.7931   -1.7096 H   0  0  0  0  0  0  0  0  0  0  0  0
   12.8672    2.9801   -2.0412 H   0  0  0  0  0  0  0  0  0  0  0  0
   11.6419    5.1536   -2.0593 H   0  0  0  0  0  0  0  0  0  0  0  0
   11.1300    4.8887   -0.3968 H   0  0  0  0  0  0  0  0  0  0  0  0
   13.4819    5.0226    0.3877 H   0  0  0  0  0  0  0  0  0  0  0  0
   12.9502    6.4721   -0.4464 H   0  0  0  0  0  0  0  0  0  0  0  0
   14.1316    5.7381   -2.5218 H   0  0  0  0  0  0  0  0  0  0  0  0
   14.6807    4.2763   -1.7022 H   0  0  0  0  0  0  0  0  0  0  0  0
   15.3488    7.1466   -0.8544 H   0  0  0  0  0  0  0  0  0  0  0  0
   15.8564    5.6743    0.0177 H   0  0  0  0  0  0  0  0  0  0  0  0
   18.8245    6.8245   -4.2502 H   0  0  0  0  0  0  0  0  0  0  0  0
   19.4843    4.5431   -3.0211 H   0  0  0  0  0  0  0  0  0  0  0  0
  1  2  1  0
  2  3  1  0
  3  4  1  0
  3  5  1  0
  5  6  1  0
  6  7  1  0
  7  8  1  0
  8  9  2  0
  8 10  1  0
 10 11  1  0
 11 12  1  0
 12 13  1  0
 13 14  1  0
 14 15  1  0
 15 16  1  0
 16 17  1  0
 16 18  1  0
 18 19  2  0
 18 20  1  0
 20 21  1  0
 21 22  1  0
 21 23  1  0
 23 24  1  0
 24 25  2  0
 25 26  1  0
 26 27  2  0
 27 28  1  0
 28 29  2  0
 23 30  1  0
 15 31  1  0
 31 32  1  0
  6 33  1  0
 33 34  1  0
  5 35  1  0
 35 36  1  0
 35 37  1  0
 37 38  2  0
 37 39  1  0
 39 40  1  0
 40 41  1  0
 40 42  1  0
 39 43  1  0
 43 44  1  0
 44 45  2  0
 44 46  1  0
 46 47  1  0
 47 48  1  0
 47 49  1  0
 46 50  1  0
 50 51  1  0
 50 52  1  0
 52 53  2  0
 52 54  1  0
 54 55  1  0
 55 56  1  0
 56 57  1  0
 57 58  2  0
 58 59  1  0
 59 60  2  0
 60 61  1  0
 59 62  1  0
 62 63  1  0
 63 64  2  0
 63 65  1  0
 65 66  1  0
 66 67  1  0
 67 68  1  0
 68 69  1  0
 69 70  1  0
 70 71  2  0
 70 72  1  0
 65 73  1  0
 73 74  1  0
 74 75  2  0
 74 76  1  0
 76 77  1  0
 77 78  1  0
 77 79  1  0
 76 80  1  0
 80 81  1  0
 81 82  2  0
 81 83  1  0
 83 84  1  0
 84 85  1  0
 85 86  1  0
 86 87  1  0
 87 88  1  0
 88 89  1  0
 89 90  2  0
 89 91  1  0
 91 92  2  0
 92 93  1  0
 93 94  2  0
 14 10  1  0
 29 24  1  0
 61 56  2  0
 93 88  1  0
  1 95  1  0
  1 96  1  0
  1 97  1  0
  2 98  1  0
  2 99  1  0
  3100  1  1
  4101  1  0
  4102  1  0
  4103  1  0
  5104  1  6
  6105  1  6
  7106  1  0
  7107  1  0
 11108  1  0
 11109  1  0
 12110  1  0
 12111  1  0
 13112  1  0
 13113  1  0
 14114  1  6
 15115  1  1
 16116  1  1
 17117  1  0
 17118  1  0
 17119  1  0
 20120  1  0
 21121  1  6
 22122  1  0
 22123  1  0
 22124  1  0
 23125  1  1
 25126  1  0
 26127  1  0
 27128  1  0
 28129  1  0
 29130  1  0
 30131  1  0
 32132  1  0
 32133  1  0
 32134  1  0
 34135  1  0
 34136  1  0
 34137  1  0
 36138  1  0
 36139  1  0
 36140  1  0
 39141  1  6
 40142  1  0
 41143  1  0
 41144  1  0
 41145  1  0
 42146  1  0
 42147  1  0
 42148  1  0
 43149  1  0
 46150  1  1
 47151  1  0
 48152  1  0
 48153  1  0
 48154  1  0
 49155  1  0
 49156  1  0
 49157  1  0
 51158  1  0
 51159  1  0
 51160  1  0
 55161  1  0
 55162  1  0
 57163  1  0
 58164  1  0
 60165  1  0
 61166  1  0
 62167  1  0
 65168  1  1
 66169  1  0
 66170  1  0
 67171  1  0
 67172  1  0
 68173  1  0
 68174  1  0
 69175  1  0
 72176  1  0
 72177  1  0
 73178  1  0
 76179  1  1
 77180  1  0
 78181  1  0
 78182  1  0
 78183  1  0
 79184  1  0
 79185  1  0
 79186  1  0
 80187  1  0
 83188  1  0
 83189  1  0
 84190  1  0
 84191  1  0
 85192  1  0
 85193  1  0
 86194  1  0
 86195  1  0
 87196  1  0
 87197  1  0
 91198  1  0
 92199  1  0
M  END
$$$$

     RDKit          3D

199202  0  0  0  0  0  0  0  0999 V2000
   -4.8116    0.3606    2.9628 C   0  0  0  0  0  0  0  0  0  0  0  0
   -5.2951    1.6877    2.3963 C   0  0  0  0  0  0  0  0  0  0  0  0
   -5.2617    1.7849    0.8494 C   0  0  2  0  0  0  0  0  0  0  0  0
   -5.5765    3.2386    0.4591 C   0  0  0  0  0  0  0  0  0  0  0  0
   -6.1592    0.7178    0.1043 C   0  0  1  0  0  0  0  0  0  0  0  0
   -7.6737    1.1045   -0.0207 C   0  0  1  0  0  0  0  0  0  0  0  0
   -8.5438    0.0176   -0.6804 C   0  0  0  0  0  0  0  0  0  0  0  0
   -8.6787   -1.2750    0.1125 C   0  0  0  0  0  0  0  0  0  0  0  0
   -7.9126   -1.5730    1.0286 O   0  0  0  0  0  0  0  0  0  0  0  0
   -9.6634   -2.1579   -0.2990 N   0  0  0  0  0  0  0  0  0  0  0  0
   -9.6713   -3.5259    0.1935 C   0  0  0  0  0  0  0  0  0  0  0  0
  -10.9110   -4.1701   -0.4024 C   0  0  0  0  0  0  0  0  0  0  0  0
  -11.1681   -3.3514   -1.6610 C   0  0  0  0  0  0  0  0  0  0  0  0
  -10.7240   -1.9282   -1.2938 C   0  0  1  0  0  0  0  0  0  0  0  0
  -11.8500   -0.9987   -0.7355 C   0  0  1  0  0  0  0  0  0  0  0  0
  -12.5043   -0.1708   -1.8641 C   0  0  1  0  0  0  0  0  0  0  0  0
  -13.5507   -0.9071   -2.6973 C   0  0  0  0  0  0  0  0  0  0  0  0
  -13.0795    1.1013   -1.2598 C   0  0  0  0  0  0  0  0  0  0  0  0
  -12.6134    2.2077   -1.5299 O   0  0  0  0  0  0  0  0  0  0  0  0
  -14.1103    0.9018   -0.3690 N   0  0  0  0  0  0  0  0  0  0  0  0
  -14.9266    2.0096    0.1354 C   0  0  2  0  0  0  0  0  0  0  0  0
  -15.3160    1.7152    1.5860 C   0  0  0  0  0  0  0  0  0  0  0  0
  -16.1836    2.2405   -0.7610 C   0  0  1  0  0  0  0  0  0  0  0  0
  -16.9515    3.5049   -0.4241 C   0  0  0  0  0  0  0  0  0  0  0  0
  -16.3422    4.7679   -0.5179 C   0  0  0  0  0  0  0  0  0  0  0  0
  -17.0592    5.9249   -0.2183 C   0  0  0  0  0  0  0  0  0  0  0  0
  -18.3940    5.8389    0.1752 C   0  0  0  0  0  0  0  0  0  0  0  0
  -19.0128    4.5942    0.2669 C   0  0  0  0  0  0  0  0  0  0  0  0
  -18.2959    3.4325   -0.0337 C   0  0  0  0  0  0  0  0  0  0  0  0
  -15.8219    2.2663   -2.1486 O   0  0  0  0  0  0  0  0  0  0  0  0
  -12.8663   -1.7321   -0.0285 O   0  0  0  0  0  0  0  0  0  0  0  0
  -12.7003   -1.6794    1.3878 C   0  0  0  0  0  0  0  0  0  0  0  0
   -8.1988    1.4727    1.2640 O   0  0  0  0  0  0  0  0  0  0  0  0
   -9.3892    2.2513    1.2179 C   0  0  0  0  0  0  0  0  0  0  0  0
   -5.5272    0.3184   -1.1989 N   0  0  0  0  0  0  0  0  0  0  0  0
   -5.5805    1.2695   -2.3070 C   0  0  0  0  0  0  0  0  0  0  0  0
   -4.4255   -0.5505   -1.2632 C   0  0  0  0  0  0  0  0  0  0  0  0
   -3.5550   -0.3962   -2.1382 O   0  0  0  0  0  0  0  0  0  0  0  0
   -4.3107   -1.7611   -0.2910 C   0  0  1  0  0  0  0  0  0  0  0  0
   -4.8571   -3.0698   -0.9378 C   0  0  0  0  0  0  0  0  0  0  0  0
   -5.8915   -2.8644   -2.0533 C   0  0  0  0  0  0  0  0  0  0  0  0
   -5.4896   -3.9803    0.1293 C   0  0  0  0  0  0  0  0  0  0  0  0
   -2.8653   -1.7892    0.0478 N   0  0  0  0  0  0  0  0  0  0  0  0
   -2.0949   -2.8740    0.4077 C   0  0  0  0  0  0  0  0  0  0  0  0
   -2.5390   -4.0125    0.5203 O   0  0  0  0  0  0  0  0  0  0  0  0
   -0.6056   -2.5178    0.7098 C   0  0  1  0  0  0  0  0  0  0  0  0
   -0.4294   -2.0904    2.1945 C   0  0  0  0  0  0  0  0  0  0  0  0
   -0.6513   -3.2123    3.2115 C   0  0  0  0  0  0  0  0  0  0  0  0
    0.9379   -1.4437    2.4406 C   0  0  0  0  0  0  0  0  0  0  0  0
    0.3783   -3.5195    0.2392 N   0  0  0  0  0  0  0  0  0  0  0  0
    0.1026   -4.9390    0.4059 C   0  0  0  0  0  0  0  0  0  0  0  0
    1.3664   -3.2015   -0.6834 C   0  0  0  0  0  0  0  0  0  0  0  0
    2.0084   -4.0401   -1.3075 O   0  0  0  0  0  0  0  0  0  0  0  0
    1.5720   -1.8626   -0.7937 O   0  0  0  0  0  0  0  0  0  0  0  0
    2.5475   -1.4497   -1.7607 C   0  0  0  0  0  0  0  0  0  0  0  0
    3.8723   -1.1052   -1.1253 C   0  0  0  0  0  0  0  0  0  0  0  0
    4.6040    0.0062   -1.5736 C   0  0  0  0  0  0  0  0  0  0  0  0
    5.8836    0.2810   -1.0745 C   0  0  0  0  0  0  0  0  0  0  0  0
    6.4537   -0.5449   -0.1065 C   0  0  0  0  0  0  0  0  0  0  0  0
    5.7184   -1.6339    0.3680 C   0  0  0  0  0  0  0  0  0  0  0  0
    4.4462   -1.9166   -0.1430 C   0  0  0  0  0  0  0  0  0  0  0  0
    7.7586   -0.3896    0.4039 N   0  0  0  0  0  0  0  0  0  0  0  0
    8.7559    0.4543   -0.0534 C   0  0  0  0  0  0  0  0  0  0  0  0
    8.6340    1.3294   -0.9078 O   0  0  0  0  0  0  0  0  0  0  0  0
   10.1298    0.1896    0.6128 C   0  0  1  0  0  0  0  0  0  0  0  0
   10.7475   -1.1469    0.1516 C   0  0  0  0  0  0  0  0  0  0  0  0
   10.3856   -2.3328    1.0533 C   0  0  0  0  0  0  0  0  0  0  0  0
   11.1982   -3.5873    0.7201 C   0  0  0  0  0  0  0  0  0  0  0  0
   11.0313   -4.0418   -0.6430 N   0  0  0  0  0  0  0  0  0  0  0  0
    9.8607   -4.5939   -1.0690 C   0  0  0  0  0  0  0  0  0  0  0  0
    8.8148   -4.6588   -0.4351 O   0  0  0  0  0  0  0  0  0  0  0  0
    9.9551   -5.0702   -2.3378 N   0  0  0  0  0  0  0  0  0  0  0  0
   11.0095    1.2921    0.2237 N   0  0  0  0  0  0  0  0  0  0  0  0
   12.1717    1.5689    0.9007 C   0  0  0  0  0  0  0  0  0  0  0  0
   12.4515    1.0392    1.9766 O   0  0  0  0  0  0  0  0  0  0  0  0
   13.1094    2.5795    0.2006 C   0  0  1  0  0  0  0  0  0  0  0  0
   12.5385    4.0141    0.1859 C   0  0  0  0  0  0  0  0  0  0  0  0
   13.3658    4.9150   -0.7393 C   0  0  0  0  0  0  0  0  0  0  0  0
   12.4383    4.6430    1.5777 C   0  0  0  0  0  0  0  0  0  0  0  0
   14.4142    2.5011    0.8520 N   0  0  0  0  0  0  0  0  0  0  0  0
   15.3645    1.6139    0.3901 C   0  0  0  0  0  0  0  0  0  0  0  0
   15.2864    1.0491   -0.6961 O   0  0  0  0  0  0  0  0  0  0  0  0
   16.5355    1.4584    1.3460 C   0  0  0  0  0  0  0  0  0  0  0  0
   17.5148    0.3802    0.8872 C   0  0  0  0  0  0  0  0  0  0  0  0
   18.8395    0.3733    1.6547 C   0  0  0  0  0  0  0  0  0  0  0  0
   19.6964    1.6453    1.5714 C   0  0  0  0  0  0  0  0  0  0  0  0
   20.2998    1.9476    0.1956 C   0  0  0  0  0  0  0  0  0  0  0  0
   19.3465    2.4081   -0.7945 N   0  0  0  0  0  0  0  0  0  0  0  0
   19.1699    1.8360   -2.0107 C   0  0  0  0  0  0  0  0  0  0  0  0
   19.7063    0.8472   -2.4805 O   0  0  0  0  0  0  0  0  0  0  0  0
   18.1856    2.6483   -2.7349 C   0  0  0  0  0  0  0  0  0  0  0  0
   17.8775    3.6895   -1.9639 C   0  0  0  0  0  0  0  0  0  0  0  0
   18.6602    3.5768   -0.7317 C   0  0  0  0  0  0  0  0  0  0  0  0
   18.6653    4.4208    0.1479 O   0  0  0  0  0  0  0  0  0  0  0  0
   -4.6786    0.4442    4.0461 H   0  0  0  0  0  0  0  0  0  0  0  0
   -3.8520    0.0677    2.5265 H   0  0  0  0  0  0  0  0  0  0  0  0
   -5.5374   -0.4394    2.7900 H   0  0  0  0  0  0  0  0  0  0  0  0
   -4.6429    2.4717    2.8044 H   0  0  0  0  0  0  0  0  0  0  0  0
   -6.2989    1.9012    2.7808 H   0  0  0  0  0  0  0  0  0  0  0  0
   -4.2162    1.6006    0.5600 H   0  0  0  0  0  0  0  0  0  0  0  0
   -5.5884    3.3872   -0.6226 H   0  0  0  0  0  0  0  0  0  0  0  0
   -4.8196    3.9185    0.8713 H   0  0  0  0  0  0  0  0  0  0  0  0
   -6.5451    3.5616    0.8553 H   0  0  0  0  0  0  0  0  0  0  0  0
   -6.1272   -0.1654    0.7295 H   0  0  0  0  0  0  0  0  0  0  0  0
   -7.7393    1.9950   -0.6556 H   0  0  0  0  0  0  0  0  0  0  0  0
   -9.5359    0.4384   -0.8520 H   0  0  0  0  0  0  0  0  0  0  0  0
   -8.1384   -0.2399   -1.6646 H   0  0  0  0  0  0  0  0  0  0  0  0
   -8.7612   -4.0176   -0.1680 H   0  0  0  0  0  0  0  0  0  0  0  0
   -9.6660   -3.5454    1.2866 H   0  0  0  0  0  0  0  0  0  0  0  0
  -11.7565   -4.0924    0.2873 H   0  0  0  0  0  0  0  0  0  0  0  0
  -10.7638   -5.2338   -0.6117 H   0  0  0  0  0  0  0  0  0  0  0  0
  -12.2032   -3.4257   -2.0059 H   0  0  0  0  0  0  0  0  0  0  0  0
  -10.5276   -3.7355   -2.4668 H   0  0  0  0  0  0  0  0  0  0  0  0
  -10.2513   -1.4537   -2.1607 H   0  0  0  0  0  0  0  0  0  0  0  0
  -11.3946   -0.2842   -0.0374 H   0  0  0  0  0  0  0  0  0  0  0  0
  -11.7200    0.1730   -2.5524 H   0  0  0  0  0  0  0  0  0  0  0  0
  -14.3352   -1.3614   -2.0855 H   0  0  0  0  0  0  0  0  0  0  0  0
  -13.0851   -1.6974   -3.2961 H   0  0  0  0  0  0  0  0  0  0  0  0
  -14.0418   -0.2179   -3.3947 H   0  0  0  0  0  0  0  0  0  0  0  0
  -14.4794   -0.0386   -0.2925 H   0  0  0  0  0  0  0  0  0  0  0  0
  -14.2951    2.9052    0.1230 H   0  0  0  0  0  0  0  0  0  0  0  0
  -14.4266    1.5161    2.1958 H   0  0  0  0  0  0  0  0  0  0  0  0
  -15.9595    0.8293    1.6526 H   0  0  0  0  0  0  0  0  0  0  0  0
  -15.8473    2.5579    2.0385 H   0  0  0  0  0  0  0  0  0  0  0  0
  -16.8453    1.3714   -0.6529 H   0  0  0  0  0  0  0  0  0  0  0  0
  -15.3050    4.8561   -0.8372 H   0  0  0  0  0  0  0  0  0  0  0  0
  -16.5796    6.8973   -0.2962 H   0  0  0  0  0  0  0  0  0  0  0  0
  -18.9542    6.7399    0.4054 H   0  0  0  0  0  0  0  0  0  0  0  0
  -20.0559    4.5269    0.5619 H   0  0  0  0  0  0  0  0  0  0  0  0
  -18.8022    2.4715    0.0387 H   0  0  0  0  0  0  0  0  0  0  0  0
  -16.2997    3.0017   -2.5699 H   0  0  0  0  0  0  0  0  0  0  0  0
  -13.4873   -2.2889    1.8451 H   0  0  0  0  0  0  0  0  0  0  0  0
  -11.7311   -2.0785    1.6891 H   0  0  0  0  0  0  0  0  0  0  0  0
  -12.8095   -0.6508    1.7458 H   0  0  0  0  0  0  0  0  0  0  0  0
   -9.6269    2.5699    2.2378 H   0  0  0  0  0  0  0  0  0  0  0  0
  -10.2295    1.6606    0.8476 H   0  0  0  0  0  0  0  0  0  0  0  0
   -9.2460    3.1420    0.6006 H   0  0  0  0  0  0  0  0  0  0  0  0
   -4.7990    2.0245   -2.1807 H   0  0  0  0  0  0  0  0  0  0  0  0
   -6.5607    1.7374   -2.3856 H   0  0  0  0  0  0  0  0  0  0  0  0
   -5.3931    0.7437   -3.2501 H   0  0  0  0  0  0  0  0  0  0  0  0
   -4.8062   -1.5661    0.6562 H   0  0  0  0  0  0  0  0  0  0  0  0
   -4.0260   -3.6163   -1.4016 H   0  0  0  0  0  0  0  0  0  0  0  0
   -6.7600   -2.3013   -1.7029 H   0  0  0  0  0  0  0  0  0  0  0  0
   -6.2557   -3.8309   -2.4221 H   0  0  0  0  0  0  0  0  0  0  0  0
   -5.4606   -2.3417   -2.9129 H   0  0  0  0  0  0  0  0  0  0  0  0
   -4.8681   -4.0752    1.0219 H   0  0  0  0  0  0  0  0  0  0  0  0
   -5.6532   -4.9851   -0.2773 H   0  0  0  0  0  0  0  0  0  0  0  0
   -6.4601   -3.5967    0.4549 H   0  0  0  0  0  0  0  0  0  0  0  0
   -2.4081   -0.8810    0.0201 H   0  0  0  0  0  0  0  0  0  0  0  0
   -0.4282   -1.6054    0.1249 H   0  0  0  0  0  0  0  0  0  0  0  0
   -1.1907   -1.3279    2.4059 H   0  0  0  0  0  0  0  0  0  0  0  0
   -0.6464   -2.8089    4.2314 H   0  0  0  0  0  0  0  0  0  0  0  0
   -1.6192   -3.7010    3.0658 H   0  0  0  0  0  0  0  0  0  0  0  0
    0.1332   -3.9728    3.1610 H   0  0  0  0  0  0  0  0  0  0  0  0
    1.1023   -0.6011    1.7606 H   0  0  0  0  0  0  0  0  0  0  0  0
    1.7562   -2.1588    2.3040 H   0  0  0  0  0  0  0  0  0  0  0  0
    1.0041   -1.0588    3.4652 H   0  0  0  0  0  0  0  0  0  0  0  0
   -0.4725   -5.1386    1.3130 H   0  0  0  0  0  0  0  0  0  0  0  0
    1.0472   -5.4918    0.4754 H   0  0  0  0  0  0  0  0  0  0  0  0
   -0.4434   -5.3000   -0.4736 H   0  0  0  0  0  0  0  0  0  0  0  0
    2.6920   -2.1864   -2.5624 H   0  0  0  0  0  0  0  0  0  0  0  0
    2.1264   -0.5569   -2.2390 H   0  0  0  0  0  0  0  0  0  0  0  0
    4.1942    0.6604   -2.3402 H   0  0  0  0  0  0  0  0  0  0  0  0
    6.4071    1.1555   -1.4510 H   0  0  0  0  0  0  0  0  0  0  0  0
    6.1352   -2.3124    1.1096 H   0  0  0  0  0  0  0  0  0  0  0  0
    3.9283   -2.7986    0.2269 H   0  0  0  0  0  0  0  0  0  0  0  0
    8.0020   -1.0384    1.1414 H   0  0  0  0  0  0  0  0  0  0  0  0
   10.0135    0.2257    1.6999 H   0  0  0  0  0  0  0  0  0  0  0  0
   10.4416   -1.3607   -0.8808 H   0  0  0  0  0  0  0  0  0  0  0  0
   11.8419   -1.0658    0.1380 H   0  0  0  0  0  0  0  0  0  0  0  0
   10.5754   -2.0703    2.1024 H   0  0  0  0  0  0  0  0  0  0  0  0
    9.3195   -2.5601    0.9658 H   0  0  0  0  0  0  0  0  0  0  0  0
   10.9072   -4.4025    1.3914 H   0  0  0  0  0  0  0  0  0  0  0  0
   12.2668   -3.3894    0.8628 H   0  0  0  0  0  0  0  0  0  0  0  0
   11.8571   -4.4083   -1.0993 H   0  0  0  0  0  0  0  0  0  0  0  0
    9.0520   -5.3436   -2.7067 H   0  0  0  0  0  0  0  0  0  0  0  0
   10.4911   -4.4866   -2.9681 H   0  0  0  0  0  0  0  0  0  0  0  0
   10.7858    1.7568   -0.6490 H   0  0  0  0  0  0  0  0  0  0  0  0
   13.2127    2.2334   -0.8373 H   0  0  0  0  0  0  0  0  0  0  0  0
   11.5224    3.9764   -0.2236 H   0  0  0  0  0  0  0  0  0  0  0  0
   12.9220    5.9127   -0.8048 H   0  0  0  0  0  0  0  0  0  0  0  0
   14.3939    5.0271   -0.3809 H   0  0  0  0  0  0  0  0  0  0  0  0
   13.4036    4.5003   -1.7523 H   0  0  0  0  0  0  0  0  0  0  0  0
   13.4234    4.7875    2.0334 H   0  0  0  0  0  0  0  0  0  0  0  0
   11.8373    4.0233    2.2509 H   0  0  0  0  0  0  0  0  0  0  0  0
   11.9577    5.6250    1.5181 H   0  0  0  0  0  0  0  0  0  0  0  0
   14.3915    2.6158    1.8607 H   0  0  0  0  0  0  0  0  0  0  0  0
   17.0215    2.4359    1.4105 H   0  0  0  0  0  0  0  0  0  0  0  0
   16.1537    1.2050    2.3429 H   0  0  0  0  0  0  0  0  0  0  0  0
   17.0363   -0.6000    1.0197 H   0  0  0  0  0  0  0  0  0  0  0  0
   17.7111    0.4541   -0.1860 H   0  0  0  0  0  0  0  0  0  0  0  0
   18.6241    0.1766    2.7134 H   0  0  0  0  0  0  0  0  0  0  0  0
   19.4407   -0.4777    1.3059 H   0  0  0  0  0  0  0  0  0  0  0  0
   20.5353    1.5085    2.2663 H   0  0  0  0  0  0  0  0  0  0  0  0
   19.1393    2.5075    1.9526 H   0  0  0  0  0  0  0  0  0  0  0  0
   21.0360    2.7516    0.3153 H   0  0  0  0  0  0  0  0  0  0  0  0
   20.8334    1.0679   -0.1855 H   0  0  0  0  0  0  0  0  0  0  0  0
   17.8157    2.3984   -3.7127 H   0  0  0  0  0  0  0  0  0  0  0  0
   17.1964    4.4968   -2.1651 H   0  0  0  0  0  0  0  0  0  0  0  0
  1  2  1  0
  2  3  1  0
  3  4  1  0
  3  5  1  0
  5  6  1  0
  6  7  1  0
  7  8  1  0
  8  9  2  0
  8 10  1  0
 10 11  1  0
 11 12  1  0
 12 13  1  0
 13 14  1  0
 14 15  1  0
 15 16  1  0
 16 17  1  0
 16 18  1  0
 18 19  2  0
 18 20  1  0
 20 21  1  0
 21 22  1  0
 21 23  1  0
 23 24  1  0
 24 25  2  0
 25 26  1  0
 26 27  2  0
 27 28  1  0
 28 29  2  0
 23 30  1  0
 15 31  1  0
 31 32  1  0
  6 33  1  0
 33 34  1  0
  5 35  1  0
 35 36  1  0
 35 37  1  0
 37 38  2  0
 37 39  1  0
 39 40  1  0
 40 41  1  0
 40 42  1  0
 39 43  1  0
 43 44  1  0
 44 45  2  0
 44 46  1  0
 46 47  1  0
 47 48  1  0
 47 49  1  0
 46 50  1  0
 50 51  1  0
 50 52  1  0
 52 53  2  0
 52 54  1  0
 54 55  1  0
 55 56  1  0
 56 57  1  0
 57 58  2  0
 58 59  1  0
 59 60  2  0
 60 61  1  0
 59 62  1  0
 62 63  1  0
 63 64  2  0
 63 65  1  0
 65 66  1  0
 66 67  1  0
 67 68  1  0
 68 69  1  0
 69 70  1  0
 70 71  2  0
 70 72  1  0
 65 73  1  0
 73 74  1  0
 74 75  2  0
 74 76  1  0
 76 77  1  0
 77 78  1  0
 77 79  1  0
 76 80  1  0
 80 81  1  0
 81 82  2  0
 81 83  1  0
 83 84  1  0
 84 85  1  0
 85 86  1  0
 86 87  1  0
 87 88  1  0
 88 89  1  0
 89 90  2  0
 89 91  1  0
 91 92  2  0
 92 93  1  0
 93 94  2  0
 14 10  1  0
 29 24  1  0
 61 56  2  0
 93 88  1  0
  1 95  1  0
  1 96  1  0
  1 97  1  0
  2 98  1  0
  2 99  1  0
  3100  1  6
  4101  1  0
  4102  1  0
  4103  1  0
  5104  1  1
  6105  1  6
  7106  1  0
  7107  1  0
 11108  1  0
 11109  1  0
 12110  1  0
 12111  1  0
 13112  1  0
 13113  1  0
 14114  1  6
 15115  1  1
 16116  1  6
 17117  1  0
 17118  1  0
 17119  1  0
 20120  1  0
 21121  1  1
 22122  1  0
 22123  1  0
 22124  1  0
 23125  1  6
 25126  1  0
 26127  1  0
 27128  1  0
 28129  1  0
 29130  1  0
 30131  1  0
 32132  1  0
 32133  1  0
 32134  1  0
 34135  1  0
 34136  1  0
 34137  1  0
 36138  1  0
 36139  1  0
 36140  1  0
 39141  1  1
 40142  1  0
 41143  1  0
 41144  1  0
 41145  1  0
 42146  1  0
 42147  1  0
 42148  1  0
 43149  1  0
 46150  1  6
 47151  1  0
 48152  1  0
 48153  1  0
 48154  1  0
 49155  1  0
 49156  1  0
 49157  1  0
 51158  1  0
 51159  1  0
 51160  1  0
 55161  1  0
 55162  1  0
 57163  1  0
 58164  1  0
 60165  1  0
 61166  1  0
 62167  1  0
 65168  1  1
 66169  1  0
 66170  1  0
 67171  1  0
 67172  1  0
 68173  1  0
 68174  1  0
 69175  1  0
 72176  1  0
 72177  1  0
 73178  1  0
 76179  1  6
 77180  1  0
 78181  1  0
 78182  1  0
 78183  1  0
 79184  1  0
 79185  1  0
 79186  1  0
 80187  1  0
 83188  1  0
 83189  1  0
 84190  1  0
 84191  1  0
 85192  1  0
 85193  1  0
 86194  1  0
 86195  1  0
 87196  1  0
 87197  1  0
 91198  1  0
 92199  1  0
M  END
$$$$

     RDKit          3D

199202  0  0  0  0  0  0  0  0999 V2000
   -4.3672    2.2790   -0.0857 C   0  0  0  0  0  0  0  0  0  0  0  0
   -5.8603    2.2975   -0.3698 C   0  0  0  0  0  0  0  0  0  0  0  0
   -6.3222    1.4294   -1.5776 C   0  0  2  0  0  0  0  0  0  0  0  0
   -7.6038    2.1098   -2.1103 C   0  0  0  0  0  0  0  0  0  0  0  0
   -6.5839   -0.0769   -1.2017 C   0  0  1  0  0  0  0  0  0  0  0  0
   -7.0147   -1.0544   -2.3751 C   0  0  1  0  0  0  0  0  0  0  0  0
   -7.9132   -2.1895   -1.8407 C   0  0  0  0  0  0  0  0  0  0  0  0
   -9.2632   -1.7328   -1.3082 C   0  0  0  0  0  0  0  0  0  0  0  0
   -9.7241   -0.6142   -1.5278 O   0  0  0  0  0  0  0  0  0  0  0  0
   -9.9769   -2.6610   -0.5730 N   0  0  0  0  0  0  0  0  0  0  0  0
   -9.6126   -4.0496   -0.3472 C   0  0  0  0  0  0  0  0  0  0  0  0
  -10.6846   -4.5770    0.5892 C   0  0  0  0  0  0  0  0  0  0  0  0
  -11.9200   -3.7859    0.1756 C   0  0  0  0  0  0  0  0  0  0  0  0
  -11.3751   -2.3932   -0.1849 C   0  0  1  0  0  0  0  0  0  0  0  0
  -11.4963   -1.3071    0.9368 C   0  0  1  0  0  0  0  0  0  0  0  0
  -12.8221   -0.5110    0.7879 C   0  0  1  0  0  0  0  0  0  0  0  0
  -14.0211   -1.1451    1.4995 C   0  0  0  0  0  0  0  0  0  0  0  0
  -12.6575    0.9394    1.2537 C   0  0  0  0  0  0  0  0  0  0  0  0
  -11.7029    1.3501    1.9056 O   0  0  0  0  0  0  0  0  0  0  0  0
  -13.7060    1.7537    0.8656 N   0  0  0  0  0  0  0  0  0  0  0  0
  -13.7439    3.1947    1.1384 C   0  0  2  0  0  0  0  0  0  0  0  0
  -13.9259    3.4959    2.6321 C   0  0  0  0  0  0  0  0  0  0  0  0
  -14.7540    3.9488    0.2129 C   0  0  1  0  0  0  0  0  0  0  0  0
  -16.1520    3.3835   -0.0042 C   0  0  0  0  0  0  0  0  0  0  0  0
  -16.8375    3.7465   -1.1803 C   0  0  0  0  0  0  0  0  0  0  0  0
  -18.1270    3.2793   -1.4423 C   0  0  0  0  0  0  0  0  0  0  0  0
  -18.7622    2.4477   -0.5273 C   0  0  0  0  0  0  0  0  0  0  0  0
  -18.1076    2.0863    0.6465 C   0  0  0  0  0  0  0  0  0  0  0  0
  -16.8148    2.5532    0.9073 C   0  0  0  0  0  0  0  0  0  0  0  0
  -14.8640    5.3201    0.6093 O   0  0  0  0  0  0  0  0  0  0  0  0
  -11.4423   -1.9402    2.2268 O   0  0  0  0  0  0  0  0  0  0  0  0
  -10.3070   -1.5448    2.9838 C   0  0  0  0  0  0  0  0  0  0  0  0
   -7.6005   -0.4017   -3.4964 O   0  0  0  0  0  0  0  0  0  0  0  0
   -7.4767   -1.1049   -4.7212 C   0  0  0  0  0  0  0  0  0  0  0  0
   -5.4607   -0.7173   -0.4300 N   0  0  0  0  0  0  0  0  0  0  0  0
   -5.7350   -0.9805    0.9806 C   0  0  0  0  0  0  0  0  0  0  0  0
   -4.2352   -0.9451   -1.0567 C   0  0  0  0  0  0  0  0  0  0  0  0
   -4.0046   -0.5231   -2.1994 O   0  0  0  0  0  0  0  0  0  0  0  0
   -3.1475   -1.8195   -0.3692 C   0  0  1  0  0  0  0  0  0  0  0  0
   -3.3261   -3.3400   -0.6096 C   0  0  0  0  0  0  0  0  0  0  0  0
   -4.4658   -3.9514    0.2049 C   0  0  0  0  0  0  0  0  0  0  0  0
   -3.4906   -3.7155   -2.0871 C   0  0  0  0  0  0  0  0  0  0  0  0
   -1.8500   -1.4126   -0.9435 N   0  0  0  0  0  0  0  0  0  0  0  0
   -0.8654   -0.8093   -0.1982 C   0  0  0  0  0  0  0  0  0  0  0  0
   -1.0020   -0.6005    1.0094 O   0  0  0  0  0  0  0  0  0  0  0  0
    0.4133   -0.3489   -0.9621 C   0  0  1  0  0  0  0  0  0  0  0  0
    1.0949   -1.4308   -1.8474 C   0  0  0  0  0  0  0  0  0  0  0  0
    1.2028   -2.7820   -1.1325 C   0  0  0  0  0  0  0  0  0  0  0  0
    0.4916   -1.6194   -3.2427 C   0  0  0  0  0  0  0  0  0  0  0  0
    0.2831    0.9597   -1.6400 N   0  0  0  0  0  0  0  0  0  0  0  0
   -1.0164    1.3903   -2.1332 C   0  0  0  0  0  0  0  0  0  0  0  0
    1.3360    1.8562   -1.7345 C   0  0  0  0  0  0  0  0  0  0  0  0
    1.2297    2.9823   -2.2141 O   0  0  0  0  0  0  0  0  0  0  0  0
    2.5140    1.3746   -1.2399 O   0  0  0  0  0  0  0  0  0  0  0  0
    3.5821    2.3163   -1.3763 C   0  0  0  0  0  0  0  0  0  0  0  0
    4.8565    1.7976   -0.7540 C   0  0  0  0  0  0  0  0  0  0  0  0
    5.9371    1.4199   -1.5591 C   0  0  0  0  0  0  0  0  0  0  0  0
    7.1602    1.0677   -0.9813 C   0  0  0  0  0  0  0  0  0  0  0  0
    7.3290    1.0771    0.4092 C   0  0  0  0  0  0  0  0  0  0  0  0
    6.2382    1.4004    1.2136 C   0  0  0  0  0  0  0  0  0  0  0  0
    5.0104    1.7571    0.6377 C   0  0  0  0  0  0  0  0  0  0  0  0
    8.6219    0.7940    0.8877 N   0  0  0  0  0  0  0  0  0  0  0  0
    9.0933    0.8291    2.1914 C   0  0  0  0  0  0  0  0  0  0  0  0
    8.4213    1.0929    3.1858 O   0  0  0  0  0  0  0  0  0  0  0  0
   10.6406    0.6503    2.2718 C   0  0  1  0  0  0  0  0  0  0  0  0
   11.1786    0.6615    3.7107 C   0  0  0  0  0  0  0  0  0  0  0  0
   10.7623   -0.5377    4.5718 C   0  0  0  0  0  0  0  0  0  0  0  0
   11.4478   -0.4769    5.9373 C   0  0  0  0  0  0  0  0  0  0  0  0
   11.0677   -1.5826    6.7919 N   0  0  0  0  0  0  0  0  0  0  0  0
   11.5820   -2.8305    6.5872 C   0  0  0  0  0  0  0  0  0  0  0  0
   12.2819   -3.1769    5.6479 O   0  0  0  0  0  0  0  0  0  0  0  0
   11.2206   -3.6941    7.5692 N   0  0  0  0  0  0  0  0  0  0  0  0
   11.1493   -0.5101    1.5221 N   0  0  0  0  0  0  0  0  0  0  0  0
   11.4028   -0.4597    0.1709 C   0  0  0  0  0  0  0  0  0  0  0  0
   11.0291    0.4898   -0.5186 O   0  0  0  0  0  0  0  0  0  0  0  0
   12.0982   -1.6990   -0.4314 C   0  0  1  0  0  0  0  0  0  0  0  0
   11.0982   -2.7942   -0.8650 C   0  0  0  0  0  0  0  0  0  0  0  0
    9.9837   -2.2871   -1.7861 C   0  0  0  0  0  0  0  0  0  0  0  0
   10.4863   -3.5161    0.3388 C   0  0  0  0  0  0  0  0  0  0  0  0
   12.8807   -1.2155   -1.5705 N   0  0  0  0  0  0  0  0  0  0  0  0
   14.1606   -0.7422   -1.3645 C   0  0  0  0  0  0  0  0  0  0  0  0
   14.7727   -0.8826   -0.3125 O   0  0  0  0  0  0  0  0  0  0  0  0
   14.7446   -0.0076   -2.5510 C   0  0  0  0  0  0  0  0  0  0  0  0
   14.1925    1.4099   -2.6843 C   0  0  0  0  0  0  0  0  0  0  0  0
   14.5835    2.3650   -1.5503 C   0  0  0  0  0  0  0  0  0  0  0  0
   16.0922    2.5972   -1.4470 C   0  0  0  0  0  0  0  0  0  0  0  0
   16.4184    3.7345   -0.4780 C   0  0  0  0  0  0  0  0  0  0  0  0
   17.8465    3.9725   -0.3963 N   0  0  0  0  0  0  0  0  0  0  0  0
   18.5723    4.6271   -1.3358 C   0  0  0  0  0  0  0  0  0  0  0  0
   18.1973    5.1376   -2.3750 O   0  0  0  0  0  0  0  0  0  0  0  0
   19.9683    4.6126   -0.8912 C   0  0  0  0  0  0  0  0  0  0  0  0
   20.0173    3.9603    0.2699 C   0  0  0  0  0  0  0  0  0  0  0  0
   18.6517    3.5342    0.6029 C   0  0  0  0  0  0  0  0  0  0  0  0
   18.3693    2.9128    1.6094 O   0  0  0  0  0  0  0  0  0  0  0  0
   -3.7958    2.4544   -1.0010 H   0  0  0  0  0  0  0  0  0  0  0  0
   -4.0413    1.3418    0.3692 H   0  0  0  0  0  0  0  0  0  0  0  0
   -4.1154    3.0767    0.6243 H   0  0  0  0  0  0  0  0  0  0  0  0
   -6.1098    3.3480   -0.5617 H   0  0  0  0  0  0  0  0  0  0  0  0
   -6.4168    2.0252    0.5324 H   0  0  0  0  0  0  0  0  0  0  0  0
   -5.5627    1.4894   -2.3657 H   0  0  0  0  0  0  0  0  0  0  0  0
   -8.4559    1.9329   -1.4438 H   0  0  0  0  0  0  0  0  0  0  0  0
   -7.8725    1.7783   -3.1132 H   0  0  0  0  0  0  0  0  0  0  0  0
   -7.4725    3.1937   -2.1997 H   0  0  0  0  0  0  0  0  0  0  0  0
   -7.4229   -0.0376   -0.4961 H   0  0  0  0  0  0  0  0  0  0  0  0
   -6.1106   -1.5478   -2.7451 H   0  0  0  0  0  0  0  0  0  0  0  0
   -8.1175   -2.9135   -2.6355 H   0  0  0  0  0  0  0  0  0  0  0  0
   -7.3776   -2.7123   -1.0463 H   0  0  0  0  0  0  0  0  0  0  0  0
   -9.6363   -4.5683   -1.3129 H   0  0  0  0  0  0  0  0  0  0  0  0
   -8.6086   -4.1310    0.0814 H   0  0  0  0  0  0  0  0  0  0  0  0
  -10.8223   -5.6571    0.5004 H   0  0  0  0  0  0  0  0  0  0  0  0
  -10.4226   -4.3539    1.6293 H   0  0  0  0  0  0  0  0  0  0  0  0
  -12.6922   -3.7854    0.9472 H   0  0  0  0  0  0  0  0  0  0  0  0
  -12.3529   -4.2456   -0.7226 H   0  0  0  0  0  0  0  0  0  0  0  0
  -11.8761   -2.0316   -1.0930 H   0  0  0  0  0  0  0  0  0  0  0  0
  -10.6560   -0.6096    0.8299 H   0  0  0  0  0  0  0  0  0  0  0  0
  -13.0577   -0.4316   -0.2836 H   0  0  0  0  0  0  0  0  0  0  0  0
  -14.9359   -0.5646    1.3345 H   0  0  0  0  0  0  0  0  0  0  0  0
  -13.8649   -1.1898    2.5845 H   0  0  0  0  0  0  0  0  0  0  0  0
  -14.2123   -2.1565    1.1295 H   0  0  0  0  0  0  0  0  0  0  0  0
  -14.3547    1.3908    0.1810 H   0  0  0  0  0  0  0  0  0  0  0  0
  -12.7479    3.5832    0.8874 H   0  0  0  0  0  0  0  0  0  0  0  0
  -13.9532    4.5728    2.8227 H   0  0  0  0  0  0  0  0  0  0  0  0
  -14.8355    3.0566    3.0434 H   0  0  0  0  0  0  0  0  0  0  0  0
  -13.0925    3.0923    3.2159 H   0  0  0  0  0  0  0  0  0  0  0  0
  -14.2807    3.9578   -0.7784 H   0  0  0  0  0  0  0  0  0  0  0  0
  -16.3625    4.4062   -1.9060 H   0  0  0  0  0  0  0  0  0  0  0  0
  -18.6338    3.5671   -2.3597 H   0  0  0  0  0  0  0  0  0  0  0  0
  -19.7675    2.0845   -0.7262 H   0  0  0  0  0  0  0  0  0  0  0  0
  -18.6057    1.4401    1.3656 H   0  0  0  0  0  0  0  0  0  0  0  0
  -16.3511    2.2439    1.8382 H   0  0  0  0  0  0  0  0  0  0  0  0
  -15.8038    5.5104    0.7788 H   0  0  0  0  0  0  0  0  0  0  0  0
   -9.3836   -1.7953    2.4525 H   0  0  0  0  0  0  0  0  0  0  0  0
  -10.3388   -0.4735    3.2035 H   0  0  0  0  0  0  0  0  0  0  0  0
  -10.3201   -2.0906    3.9304 H   0  0  0  0  0  0  0  0  0  0  0  0
   -6.4273   -1.3106   -4.9496 H   0  0  0  0  0  0  0  0  0  0  0  0
   -8.0485   -2.0353   -4.6976 H   0  0  0  0  0  0  0  0  0  0  0  0
   -7.8845   -0.4742   -5.5167 H   0  0  0  0  0  0  0  0  0  0  0  0
   -6.0112   -0.0436    1.4692 H   0  0  0  0  0  0  0  0  0  0  0  0
   -6.5748   -1.6782    1.0502 H   0  0  0  0  0  0  0  0  0  0  0  0
   -4.8868   -1.3962    1.5172 H   0  0  0  0  0  0  0  0  0  0  0  0
   -3.1086   -1.6107    0.6983 H   0  0  0  0  0  0  0  0  0  0  0  0
   -2.4057   -3.8329   -0.2621 H   0  0  0  0  0  0  0  0  0  0  0  0
   -4.4540   -5.0440    0.1188 H   0  0  0  0  0  0  0  0  0  0  0  0
   -5.4429   -3.6078   -0.1457 H   0  0  0  0  0  0  0  0  0  0  0  0
   -4.3660   -3.7077    1.2672 H   0  0  0  0  0  0  0  0  0  0  0  0
   -4.4147   -3.3097   -2.5111 H   0  0  0  0  0  0  0  0  0  0  0  0
   -3.5271   -4.8044   -2.2061 H   0  0  0  0  0  0  0  0  0  0  0  0
   -2.6499   -3.3534   -2.6871 H   0  0  0  0  0  0  0  0  0  0  0  0
   -1.8878   -1.1942   -1.9297 H   0  0  0  0  0  0  0  0  0  0  0  0
    1.1239   -0.1811   -0.1376 H   0  0  0  0  0  0  0  0  0  0  0  0
    2.1255   -1.0921   -2.0181 H   0  0  0  0  0  0  0  0  0  0  0  0
    0.2303   -3.2764   -1.0462 H   0  0  0  0  0  0  0  0  0  0  0  0
    1.6154   -2.6591   -0.1269 H   0  0  0  0  0  0  0  0  0  0  0  0
    1.8652   -3.4588   -1.6830 H   0  0  0  0  0  0  0  0  0  0  0  0
    0.4638   -0.6765   -3.7980 H   0  0  0  0  0  0  0  0  0  0  0  0
   -0.5182   -2.0357   -3.2124 H   0  0  0  0  0  0  0  0  0  0  0  0
    1.1049   -2.3158   -3.8246 H   0  0  0  0  0  0  0  0  0  0  0  0
   -1.4056    0.6497   -2.8358 H   0  0  0  0  0  0  0  0  0  0  0  0
   -1.6928    1.5057   -1.2825 H   0  0  0  0  0  0  0  0  0  0  0  0
   -0.9668    2.3497   -2.6546 H   0  0  0  0  0  0  0  0  0  0  0  0
    3.7508    2.5151   -2.4405 H   0  0  0  0  0  0  0  0  0  0  0  0
    3.3199    3.2636   -0.8889 H   0  0  0  0  0  0  0  0  0  0  0  0
    5.8524    1.4272   -2.6427 H   0  0  0  0  0  0  0  0  0  0  0  0
    7.9911    0.8104   -1.6326 H   0  0  0  0  0  0  0  0  0  0  0  0
    6.3150    1.4110    2.2963 H   0  0  0  0  0  0  0  0  0  0  0  0
    4.1842    2.0393    1.2885 H   0  0  0  0  0  0  0  0  0  0  0  0
    9.3408    0.6828    0.1734 H   0  0  0  0  0  0  0  0  0  0  0  0
   11.0506    1.5442    1.7839 H   0  0  0  0  0  0  0  0  0  0  0  0
   10.8524    1.5821    4.2100 H   0  0  0  0  0  0  0  0  0  0  0  0
   12.2756    0.6976    3.6684 H   0  0  0  0  0  0  0  0  0  0  0  0
    9.6780   -0.5492    4.7153 H   0  0  0  0  0  0  0  0  0  0  0  0
   11.0211   -1.4763    4.0741 H   0  0  0  0  0  0  0  0  0  0  0  0
   11.1646    0.4426    6.4620 H   0  0  0  0  0  0  0  0  0  0  0  0
   12.5379   -0.4820    5.8249 H   0  0  0  0  0  0  0  0  0  0  0  0
   10.9037   -1.3657    7.7646 H   0  0  0  0  0  0  0  0  0  0  0  0
   10.2759   -3.6005    7.9122 H   0  0  0  0  0  0  0  0  0  0  0  0
   11.4967   -4.6492    7.3730 H   0  0  0  0  0  0  0  0  0  0  0  0
   11.5685   -1.2671    2.0512 H   0  0  0  0  0  0  0  0  0  0  0  0
   12.7856   -2.1131    0.3135 H   0  0  0  0  0  0  0  0  0  0  0  0
   11.6635   -3.5453   -1.4325 H   0  0  0  0  0  0  0  0  0  0  0  0
    9.3228   -1.5824   -1.2750 H   0  0  0  0  0  0  0  0  0  0  0  0
   10.3898   -1.7951   -2.6736 H   0  0  0  0  0  0  0  0  0  0  0  0
    9.3656   -3.1211   -2.1328 H   0  0  0  0  0  0  0  0  0  0  0  0
   11.2681   -3.9048    0.9982 H   0  0  0  0  0  0  0  0  0  0  0  0
    9.8401   -2.8557    0.9237 H   0  0  0  0  0  0  0  0  0  0  0  0
    9.8784   -4.3645    0.0084 H   0  0  0  0  0  0  0  0  0  0  0  0
   12.3474   -0.7321   -2.2846 H   0  0  0  0  0  0  0  0  0  0  0  0
   14.5062   -0.5769   -3.4581 H   0  0  0  0  0  0  0  0  0  0  0  0
   15.8362   -0.0121   -2.4666 H   0  0  0  0  0  0  0  0  0  0  0  0
   14.5381    1.8330   -3.6354 H   0  0  0  0  0  0  0  0  0  0  0  0
   13.0988    1.3773   -2.7425 H   0  0  0  0  0  0  0  0  0  0  0  0
   14.0836    3.3237   -1.7316 H   0  0  0  0  0  0  0  0  0  0  0  0
   14.2023    1.9934   -0.5920 H   0  0  0  0  0  0  0  0  0  0  0  0
   16.5931    1.6841   -1.1119 H   0  0  0  0  0  0  0  0  0  0  0  0
   16.4951    2.8336   -2.4385 H   0  0  0  0  0  0  0  0  0  0  0  0
   15.9436    4.6606   -0.8227 H   0  0  0  0  0  0  0  0  0  0  0  0
   16.0352    3.5002    0.5221 H   0  0  0  0  0  0  0  0  0  0  0  0
   20.7713    5.0661   -1.4443 H   0  0  0  0  0  0  0  0  0  0  0  0
   20.8705    3.7506    0.8920 H   0  0  0  0  0  0  0  0  0  0  0  0
  1  2  1  0
  2  3  1  0
  3  4  1  0
  3  5  1  0
  5  6  1  0
  6  7  1  0
  7  8  1  0
  8  9  2  0
  8 10  1  0
 10 11  1  0
 11 12  1  0
 12 13  1  0
 13 14  1  0
 14 15  1  0
 15 16  1  0
 16 17  1  0
 16 18  1  0
 18 19  2  0
 18 20  1  0
 20 21  1  0
 21 22  1  0
 21 23  1  0
 23 24  1  0
 24 25  2  0
 25 26  1  0
 26 27  2  0
 27 28  1  0
 28 29  2  0
 23 30  1  0
 15 31  1  0
 31 32  1  0
  6 33  1  0
 33 34  1  0
  5 35  1  0
 35 36  1  0
 35 37  1  0
 37 38  2  0
 37 39  1  0
 39 40  1  0
 40 41  1  0
 40 42  1  0
 39 43  1  0
 43 44  1  0
 44 45  2  0
 44 46  1  0
 46 47  1  0
 47 48  1  0
 47 49  1  0
 46 50  1  0
 50 51  1  0
 50 52  1  0
 52 53  2  0
 52 54  1  0
 54 55  1  0
 55 56  1  0
 56 57  1  0
 57 58  2  0
 58 59  1  0
 59 60  2  0
 60 61  1  0
 59 62  1  0
 62 63  1  0
 63 64  2  0
 63 65  1  0
 65 66  1  0
 66 67  1  0
 67 68  1  0
 68 69  1  0
 69 70  1  0
 70 71  2  0
 70 72  1  0
 65 73  1  0
 73 74  1  0
 74 75  2  0
 74 76  1  0
 76 77  1  0
 77 78  1  0
 77 79  1  0
 76 80  1  0
 80 81  1  0
 81 82  2  0
 81 83  1  0
 83 84  1  0
 84 85  1  0
 85 86  1  0
 86 87  1  0
 87 88  1  0
 88 89  1  0
 89 90  2  0
 89 91  1  0
 91 92  2  0
 92 93  1  0
 93 94  2  0
 14 10  1  0
 29 24  1  0
 61 56  2  0
 93 88  1  0
  1 95  1  0
  1 96  1  0
  1 97  1  0
  2 98  1  0
  2 99  1  0
  3100  1  6
  4101  1  0
  4102  1  0
  4103  1  0
  5104  1  1
  6105  1  6
  7106  1  0
  7107  1  0
 11108  1  0
 11109  1  0
 12110  1  0
 12111  1  0
 13112  1  0
 13113  1  0
 14114  1  6
 15115  1  1
 16116  1  6
 17117  1  0
 17118  1  0
 17119  1  0
 20120  1  0
 21121  1  6
 22122  1  0
 22123  1  0
 22124  1  0
 23125  1  6
 25126  1  0
 26127  1  0
 27128  1  0
 28129  1  0
 29130  1  0
 30131  1  0
 32132  1  0
 32133  1  0
 32134  1  0
 34135  1  0
 34136  1  0
 34137  1  0
 36138  1  0
 36139  1  0
 36140  1  0
 39141  1  1
 40142  1  0
 41143  1  0
 41144  1  0
 41145  1  0
 42146  1  0
 42147  1  0
 42148  1  0
 43149  1  0
 46150  1  1
 47151  1  0
 48152  1  0
 48153  1  0
 48154  1  0
 49155  1  0
 49156  1  0
 49157  1  0
 51158  1  0
 51159  1  0
 51160  1  0
 55161  1  0
 55162  1  0
 57163  1  0
 58164  1  0
 60165  1  0
 61166  1  0
 62167  1  0
 65168  1  6
 66169  1  0
 66170  1  0
 67171  1  0
 67172  1  0
 68173  1  0
 68174  1  0
 69175  1  0
 72176  1  0
 72177  1  0
 73178  1  0
 76179  1  1
 77180  1  0
 78181  1  0
 78182  1  0
 78183  1  0
 79184  1  0
 79185  1  0
 79186  1  0
 80187  1  0
 83188  1  0
 83189  1  0
 84190  1  0
 84191  1  0
 85192  1  0
 85193  1  0
 86194  1  0
 86195  1  0
 87196  1  0
 87197  1  0
 91198  1  0
 92199  1  0
M  END
$$$$

     RDKit          3D

199202  0  0  0  0  0  0  0  0999 V2000
    6.6276    2.1772   -1.7545 C   0  0  0  0  0  0  0  0  0  0  0  0
    5.3178    1.4201   -1.6000 C   0  0  0  0  0  0  0  0  0  0  0  0
    4.6107    1.5082   -0.2225 C   0  0  2  0  0  0  0  0  0  0  0  0
    4.2953    2.9517    0.1638 C   0  0  0  0  0  0  0  0  0  0  0  0
    5.2811    0.6012    0.8687 C   0  0  1  0  0  0  0  0  0  0  0  0
    6.4178    1.1872    1.7853 C   0  0  1  0  0  0  0  0  0  0  0  0
    7.5376    0.1733    2.0728 C   0  0  0  0  0  0  0  0  0  0  0  0
    8.3955   -0.1542    0.8611 C   0  0  0  0  0  0  0  0  0  0  0  0
    8.0360   -1.0315    0.0754 O   0  0  0  0  0  0  0  0  0  0  0  0
    9.5696    0.5413    0.6846 N   0  0  0  0  0  0  0  0  0  0  0  0
   10.1158    1.5726    1.5541 C   0  0  0  0  0  0  0  0  0  0  0  0
   11.4375    1.9902    0.9330 C   0  0  0  0  0  0  0  0  0  0  0  0
   11.2705    1.5843   -0.5221 C   0  0  0  0  0  0  0  0  0  0  0  0
   10.4507    0.2947   -0.4696 C   0  0  1  0  0  0  0  0  0  0  0  0
   11.2501   -1.0324   -0.2937 C   0  0  1  0  0  0  0  0  0  0  0  0
   12.1171   -1.4956   -1.4943 C   0  0  1  0  0  0  0  0  0  0  0  0
   11.4817   -1.2523   -2.8663 C   0  0  0  0  0  0  0  0  0  0  0  0
   13.5952   -1.1014   -1.4200 C   0  0  0  0  0  0  0  0  0  0  0  0
   14.3815   -1.7491   -0.7279 O   0  0  0  0  0  0  0  0  0  0  0  0
   13.9943   -0.0115   -2.1575 N   0  0  0  0  0  0  0  0  0  0  0  0
   15.3384    0.5860   -2.0182 C   0  0  2  0  0  0  0  0  0  0  0  0
   16.4394   -0.4060   -2.4044 C   0  0  0  0  0  0  0  0  0  0  0  0
   15.5389    1.2199   -0.6107 C   0  0  1  0  0  0  0  0  0  0  0  0
   16.9130    1.8017   -0.3469 C   0  0  0  0  0  0  0  0  0  0  0  0
   17.6499    1.3861    0.7760 C   0  0  0  0  0  0  0  0  0  0  0  0
   18.9104    1.9206    1.0437 C   0  0  0  0  0  0  0  0  0  0  0  0
   19.4507    2.8836    0.1900 C   0  0  0  0  0  0  0  0  0  0  0  0
   18.7243    3.3175   -0.9204 C   0  0  0  0  0  0  0  0  0  0  0  0
   17.4625    2.7867   -1.1836 C   0  0  0  0  0  0  0  0  0  0  0  0
   14.5880    2.2914   -0.4506 O   0  0  0  0  0  0  0  0  0  0  0  0
   12.0122   -0.9691    0.9221 O   0  0  0  0  0  0  0  0  0  0  0  0
   12.1807   -2.2336    1.5502 C   0  0  0  0  0  0  0  0  0  0  0  0
    6.9655    2.4205    1.3206 O   0  0  0  0  0  0  0  0  0  0  0  0
    7.1416    3.3785    2.3618 C   0  0  0  0  0  0  0  0  0  0  0  0
    4.2148   -0.0584    1.7032 N   0  0  0  0  0  0  0  0  0  0  0  0
    3.7149    0.5974    2.9037 C   0  0  0  0  0  0  0  0  0  0  0  0
    3.8559   -1.4001    1.5641 C   0  0  0  0  0  0  0  0  0  0  0  0
    3.4679   -2.0492    2.5446 O   0  0  0  0  0  0  0  0  0  0  0  0
    3.5985   -1.9201    0.1317 C   0  0  1  0  0  0  0  0  0  0  0  0
    4.1277   -3.3344   -0.1807 C   0  0  0  0  0  0  0  0  0  0  0  0
    3.6527   -4.4384    0.7671 C   0  0  0  0  0  0  0  0  0  0  0  0
    5.6527   -3.3453   -0.2675 C   0  0  0  0  0  0  0  0  0  0  0  0
    2.1314   -1.8674    0.0717 N   0  0  0  0  0  0  0  0  0  0  0  0
    1.3841   -1.8795   -1.0798 C   0  0  0  0  0  0  0  0  0  0  0  0
    1.9045   -1.8743   -2.1889 O   0  0  0  0  0  0  0  0  0  0  0  0
   -0.1447   -1.7362   -0.8172 C   0  0  1  0  0  0  0  0  0  0  0  0
   -1.0482   -2.2905   -1.9523 C   0  0  0  0  0  0  0  0  0  0  0  0
   -0.8439   -1.5458   -3.2813 C   0  0  0  0  0  0  0  0  0  0  0  0
   -2.5417   -2.1835   -1.5969 C   0  0  0  0  0  0  0  0  0  0  0  0
   -0.4667   -2.3211    0.5147 N   0  0  0  0  0  0  0  0  0  0  0  0
   -0.3973   -3.7671    0.6720 C   0  0  0  0  0  0  0  0  0  0  0  0
   -1.0922   -1.5244    1.4681 C   0  0  0  0  0  0  0  0  0  0  0  0
   -1.2436   -0.3124    1.3522 O   0  0  0  0  0  0  0  0  0  0  0  0
   -1.5519   -2.2519    2.5260 O   0  0  0  0  0  0  0  0  0  0  0  0
   -2.5080   -1.5866    3.3683 C   0  0  0  0  0  0  0  0  0  0  0  0
   -3.8608   -1.5673    2.6914 C   0  0  0  0  0  0  0  0  0  0  0  0
   -4.6975   -0.4523    2.7970 C   0  0  0  0  0  0  0  0  0  0  0  0
   -5.8839   -0.3820    2.0552 C   0  0  0  0  0  0  0  0  0  0  0  0
   -6.2449   -1.4203    1.1864 C   0  0  0  0  0  0  0  0  0  0  0  0
   -5.4612   -2.5741    1.1647 C   0  0  0  0  0  0  0  0  0  0  0  0
   -4.2831   -2.6473    1.9163 C   0  0  0  0  0  0  0  0  0  0  0  0
   -7.3740   -1.2304    0.3635 N   0  0  0  0  0  0  0  0  0  0  0  0
   -7.6843   -1.9376   -0.7817 C   0  0  0  0  0  0  0  0  0  0  0  0
   -7.0056   -2.8691   -1.2138 O   0  0  0  0  0  0  0  0  0  0  0  0
   -8.8401   -1.3331   -1.6386 C   0  0  1  0  0  0  0  0  0  0  0  0
   -9.2995   -2.2867   -2.7702 C   0  0  0  0  0  0  0  0  0  0  0  0
   -9.5380   -3.7706   -2.4558 C   0  0  0  0  0  0  0  0  0  0  0  0
  -10.7448   -4.1113   -1.5947 C   0  0  0  0  0  0  0  0  0  0  0  0
  -10.6903   -3.5293   -0.2733 N   0  0  0  0  0  0  0  0  0  0  0  0
  -11.8084   -3.0448    0.3261 C   0  0  0  0  0  0  0  0  0  0  0  0
  -12.9116   -3.0196   -0.2044 O   0  0  0  0  0  0  0  0  0  0  0  0
  -11.5832   -2.5058    1.5461 N   0  0  0  0  0  0  0  0  0  0  0  0
   -9.9897   -0.7293   -0.9451 N   0  0  0  0  0  0  0  0  0  0  0  0
   -9.9129    0.5270   -0.3838 C   0  0  0  0  0  0  0  0  0  0  0  0
   -8.8291    0.9880   -0.0251 O   0  0  0  0  0  0  0  0  0  0  0  0
  -11.2525    1.2938   -0.2147 C   0  0  1  0  0  0  0  0  0  0  0  0
  -11.1991    2.6951   -0.8955 C   0  0  0  0  0  0  0  0  0  0  0  0
  -10.2048    3.6446   -0.2154 C   0  0  0  0  0  0  0  0  0  0  0  0
  -12.5742    3.3867   -0.9048 C   0  0  0  0  0  0  0  0  0  0  0  0
  -12.3869    0.5263   -0.7576 N   0  0  0  0  0  0  0  0  0  0  0  0
  -13.3991    0.0779    0.0776 C   0  0  0  0  0  0  0  0  0  0  0  0
  -13.2680   -0.0127    1.2992 O   0  0  0  0  0  0  0  0  0  0  0  0
  -14.6830   -0.2858   -0.6494 C   0  0  0  0  0  0  0  0  0  0  0  0
  -15.9312    0.1753    0.0981 C   0  0  0  0  0  0  0  0  0  0  0  0
  -16.0598    1.7029    0.1249 C   0  0  0  0  0  0  0  0  0  0  0  0
  -17.3992    2.1501    0.7145 C   0  0  0  0  0  0  0  0  0  0  0  0
  -17.5129    3.6757    0.7008 C   0  0  0  0  0  0  0  0  0  0  0  0
  -18.7999    4.1352    1.1858 N   0  0  0  0  0  0  0  0  0  0  0  0
  -19.8360    4.5133    0.3920 C   0  0  0  0  0  0  0  0  0  0  0  0
  -19.9039    4.5544   -0.8258 O   0  0  0  0  0  0  0  0  0  0  0  0
  -20.9344    4.9033    1.2828 C   0  0  0  0  0  0  0  0  0  0  0  0
  -20.5384    4.6969    2.5379 C   0  0  0  0  0  0  0  0  0  0  0  0
  -19.1604    4.1928    2.4916 C   0  0  0  0  0  0  0  0  0  0  0  0
  -18.5148    3.8976    3.4793 O   0  0  0  0  0  0  0  0  0  0  0  0
    7.3988    1.7954   -1.0808 H   0  0  0  0  0  0  0  0  0  0  0  0
    6.5025    3.2476   -1.6129 H   0  0  0  0  0  0  0  0  0  0  0  0
    7.0021    2.0390   -2.7749 H   0  0  0  0  0  0  0  0  0  0  0  0
    5.4945    0.3634   -1.8513 H   0  0  0  0  0  0  0  0  0  0  0  0
    4.6251    1.7901   -2.3687 H   0  0  0  0  0  0  0  0  0  0  0  0
    3.6244    1.0611   -0.4048 H   0  0  0  0  0  0  0  0  0  0  0  0
    3.7163    3.4331   -0.6313 H   0  0  0  0  0  0  0  0  0  0  0  0
    5.1803    3.5742    0.3109 H   0  0  0  0  0  0  0  0  0  0  0  0
    3.6900    3.0001    1.0725 H   0  0  0  0  0  0  0  0  0  0  0  0
    5.7282   -0.2306    0.3133 H   0  0  0  0  0  0  0  0  0  0  0  0
    5.9798    1.3919    2.7633 H   0  0  0  0  0  0  0  0  0  0  0  0
    8.1673    0.5396    2.8864 H   0  0  0  0  0  0  0  0  0  0  0  0
    7.0995   -0.7687    2.4364 H   0  0  0  0  0  0  0  0  0  0  0  0
    9.4317    2.4182    1.5594 H   0  0  0  0  0  0  0  0  0  0  0  0
   10.2404    1.1974    2.5717 H   0  0  0  0  0  0  0  0  0  0  0  0
   11.6293    3.0616    1.0513 H   0  0  0  0  0  0  0  0  0  0  0  0
   12.2730    1.4540    1.3939 H   0  0  0  0  0  0  0  0  0  0  0  0
   12.2180    1.5081   -1.0410 H   0  0  0  0  0  0  0  0  0  0  0  0
   10.6856    2.3621   -1.0379 H   0  0  0  0  0  0  0  0  0  0  0  0
    9.8165    0.2169   -1.3620 H   0  0  0  0  0  0  0  0  0  0  0  0
   10.4855   -1.8092   -0.1594 H   0  0  0  0  0  0  0  0  0  0  0  0
   12.1647   -2.5936   -1.4148 H   0  0  0  0  0  0  0  0  0  0  0  0
   12.0965   -1.6868   -3.6613 H   0  0  0  0  0  0  0  0  0  0  0  0
   10.4895   -1.7150   -2.9194 H   0  0  0  0  0  0  0  0  0  0  0  0
   11.3696   -0.1870   -3.0910 H   0  0  0  0  0  0  0  0  0  0  0  0
   13.2831    0.6393   -2.4504 H   0  0  0  0  0  0  0  0  0  0  0  0
   15.3424    1.3893   -2.7681 H   0  0  0  0  0  0  0  0  0  0  0  0
   16.1732   -0.9496   -3.3187 H   0  0  0  0  0  0  0  0  0  0  0  0
   16.6249   -1.1448   -1.6158 H   0  0  0  0  0  0  0  0  0  0  0  0
   17.3831    0.1137   -2.5939 H   0  0  0  0  0  0  0  0  0  0  0  0
   15.3028    0.4835    0.1649 H   0  0  0  0  0  0  0  0  0  0  0  0
   17.2409    0.6329    1.4500 H   0  0  0  0  0  0  0  0  0  0  0  0
   19.4718    1.5866    1.9126 H   0  0  0  0  0  0  0  0  0  0  0  0
   20.4362    3.2945    0.3910 H   0  0  0  0  0  0  0  0  0  0  0  0
   19.1460    4.0731   -1.5809 H   0  0  0  0  0  0  0  0  0  0  0  0
   16.9038    3.1554   -2.0421 H   0  0  0  0  0  0  0  0  0  0  0  0
   14.8992    2.8359    0.2969 H   0  0  0  0  0  0  0  0  0  0  0  0
   12.6916   -2.9423    0.8937 H   0  0  0  0  0  0  0  0  0  0  0  0
   11.2071   -2.6366    1.8492 H   0  0  0  0  0  0  0  0  0  0  0  0
   12.7849   -2.0897    2.4518 H   0  0  0  0  0  0  0  0  0  0  0  0
    7.6800    4.2380    1.9486 H   0  0  0  0  0  0  0  0  0  0  0  0
    6.1679    3.7152    2.7297 H   0  0  0  0  0  0  0  0  0  0  0  0
    7.7299    2.9598    3.1860 H   0  0  0  0  0  0  0  0  0  0  0  0
    4.3005    0.2689    3.7676 H   0  0  0  0  0  0  0  0  0  0  0  0
    2.6674    0.3145    3.0627 H   0  0  0  0  0  0  0  0  0  0  0  0
    3.7650    1.6852    2.8054 H   0  0  0  0  0  0  0  0  0  0  0  0
    3.9653   -1.2265   -0.6282 H   0  0  0  0  0  0  0  0  0  0  0  0
    3.7510   -3.6076   -1.1768 H   0  0  0  0  0  0  0  0  0  0  0  0
    2.5645   -4.4254    0.8959 H   0  0  0  0  0  0  0  0  0  0  0  0
    3.9173   -5.4210    0.3583 H   0  0  0  0  0  0  0  0  0  0  0  0
    4.1225   -4.3616    1.7537 H   0  0  0  0  0  0  0  0  0  0  0  0
    6.0031   -2.6267   -1.0186 H   0  0  0  0  0  0  0  0  0  0  0  0
    6.0123   -4.3371   -0.5686 H   0  0  0  0  0  0  0  0  0  0  0  0
    6.1094   -3.0970    0.6952 H   0  0  0  0  0  0  0  0  0  0  0  0
    1.6286   -1.9261    0.9528 H   0  0  0  0  0  0  0  0  0  0  0  0
   -0.3126   -0.6517   -0.7613 H   0  0  0  0  0  0  0  0  0  0  0  0
   -0.8091   -3.3504   -2.1184 H   0  0  0  0  0  0  0  0  0  0  0  0
   -0.9037   -0.4627   -3.1411 H   0  0  0  0  0  0  0  0  0  0  0  0
    0.1206   -1.7816   -3.7360 H   0  0  0  0  0  0  0  0  0  0  0  0
   -1.6093   -1.8335   -4.0107 H   0  0  0  0  0  0  0  0  0  0  0  0
   -2.8343   -1.1401   -1.4573 H   0  0  0  0  0  0  0  0  0  0  0  0
   -2.7861   -2.7370   -0.6909 H   0  0  0  0  0  0  0  0  0  0  0  0
   -3.1559   -2.6028   -2.3985 H   0  0  0  0  0  0  0  0  0  0  0  0
   -1.3641   -4.2120    0.4135 H   0  0  0  0  0  0  0  0  0  0  0  0
   -0.1568   -4.0235    1.7107 H   0  0  0  0  0  0  0  0  0  0  0  0
    0.3761   -4.1864    0.0227 H   0  0  0  0  0  0  0  0  0  0  0  0
   -2.1548   -0.5819    3.6318 H   0  0  0  0  0  0  0  0  0  0  0  0
   -2.5779   -2.1634    4.2992 H   0  0  0  0  0  0  0  0  0  0  0  0
   -4.4028    0.4054    3.4028 H   0  0  0  0  0  0  0  0  0  0  0  0
   -6.4888    0.5172    2.1196 H   0  0  0  0  0  0  0  0  0  0  0  0
   -5.7140   -3.4259    0.5444 H   0  0  0  0  0  0  0  0  0  0  0  0
   -3.6748   -3.5450    1.8459 H   0  0  0  0  0  0  0  0  0  0  0  0
   -7.8481   -0.3365    0.4650 H   0  0  0  0  0  0  0  0  0  0  0  0
   -8.3607   -0.4841   -2.1458 H   0  0  0  0  0  0  0  0  0  0  0  0
  -10.1930   -1.8727   -3.2520 H   0  0  0  0  0  0  0  0  0  0  0  0
   -8.5116   -2.2681   -3.5372 H   0  0  0  0  0  0  0  0  0  0  0  0
   -9.6756   -4.2861   -3.4174 H   0  0  0  0  0  0  0  0  0  0  0  0
   -8.6448   -4.2247   -2.0162 H   0  0  0  0  0  0  0  0  0  0  0  0
  -11.6611   -3.8037   -2.1078 H   0  0  0  0  0  0  0  0  0  0  0  0
  -10.7894   -5.1936   -1.4579 H   0  0  0  0  0  0  0  0  0  0  0  0
   -9.8455   -3.6224    0.2855 H   0  0  0  0  0  0  0  0  0  0  0  0
  -12.3343   -1.8849    1.8524 H   0  0  0  0  0  0  0  0  0  0  0  0
  -10.6557   -2.1743    1.7742 H   0  0  0  0  0  0  0  0  0  0  0  0
  -10.9232   -1.0343   -1.2066 H   0  0  0  0  0  0  0  0  0  0  0  0
  -11.4029    1.4269    0.8627 H   0  0  0  0  0  0  0  0  0  0  0  0
  -10.8850    2.5677   -1.9404 H   0  0  0  0  0  0  0  0  0  0  0  0
  -10.2937    4.6612   -0.6198 H   0  0  0  0  0  0  0  0  0  0  0  0
   -9.1678    3.3362   -0.3843 H   0  0  0  0  0  0  0  0  0  0  0  0
  -10.3804    3.6957    0.8648 H   0  0  0  0  0  0  0  0  0  0  0  0
  -13.2932    2.8396   -1.5235 H   0  0  0  0  0  0  0  0  0  0  0  0
  -12.9796    3.4684    0.1094 H   0  0  0  0  0  0  0  0  0  0  0  0
  -12.4987    4.3957   -1.3287 H   0  0  0  0  0  0  0  0  0  0  0  0
  -12.6300    0.6881   -1.7226 H   0  0  0  0  0  0  0  0  0  0  0  0
  -14.6857    0.1445   -1.6585 H   0  0  0  0  0  0  0  0  0  0  0  0
  -14.7092   -1.3717   -0.7655 H   0  0  0  0  0  0  0  0  0  0  0  0
  -16.8098   -0.2464   -0.4036 H   0  0  0  0  0  0  0  0  0  0  0  0
  -15.9302   -0.2114    1.1283 H   0  0  0  0  0  0  0  0  0  0  0  0
  -15.9628    2.0968   -0.8958 H   0  0  0  0  0  0  0  0  0  0  0  0
  -15.2383    2.1349    0.7116 H   0  0  0  0  0  0  0  0  0  0  0  0
  -18.2230    1.7115    0.1347 H   0  0  0  0  0  0  0  0  0  0  0  0
  -17.4980    1.7725    1.7372 H   0  0  0  0  0  0  0  0  0  0  0  0
  -17.3733    4.0483   -0.3252 H   0  0  0  0  0  0  0  0  0  0  0  0
  -16.7312    4.1130    1.3357 H   0  0  0  0  0  0  0  0  0  0  0  0
  -21.8846    5.2716    0.9290 H   0  0  0  0  0  0  0  0  0  0  0  0
  -21.0800    4.8648    3.4546 H   0  0  0  0  0  0  0  0  0  0  0  0
  1  2  1  0
  2  3  1  0
  3  4  1  0
  3  5  1  0
  5  6  1  0
  6  7  1  0
  7  8  1  0
  8  9  2  0
  8 10  1  0
 10 11  1  0
 11 12  1  0
 12 13  1  0
 13 14  1  0
 14 15  1  0
 15 16  1  0
 16 17  1  0
 16 18  1  0
 18 19  2  0
 18 20  1  0
 20 21  1  0
 21 22  1  0
 21 23  1  0
 23 24  1  0
 24 25  2  0
 25 26  1  0
 26 27  2  0
 27 28  1  0
 28 29  2  0
 23 30  1  0
 15 31  1  0
 31 32  1  0
  6 33  1  0
 33 34  1  0
  5 35  1  0
 35 36  1  0
 35 37  1  0
 37 38  2  0
 37 39  1  0
 39 40  1  0
 40 41  1  0
 40 42  1  0
 39 43  1  0
 43 44  1  0
 44 45  2  0
 44 46  1  0
 46 47  1  0
 47 48  1  0
 47 49  1  0
 46 50  1  0
 50 51  1  0
 50 52  1  0
 52 53  2  0
 52 54  1  0
 54 55  1  0
 55 56  1  0
 56 57  1  0
 57 58  2  0
 58 59  1  0
 59 60  2  0
 60 61  1  0
 59 62  1  0
 62 63  1  0
 63 64  2  0
 63 65  1  0
 65 66  1  0
 66 67  1  0
 67 68  1  0
 68 69  1  0
 69 70  1  0
 70 71  2  0
 70 72  1  0
 65 73  1  0
 73 74  1  0
 74 75  2  0
 74 76  1  0
 76 77  1  0
 77 78  1  0
 77 79  1  0
 76 80  1  0
 80 81  1  0
 81 82  2  0
 81 83  1  0
 83 84  1  0
 84 85  1  0
 85 86  1  0
 86 87  1  0
 87 88  1  0
 88 89  1  0
 89 90  2  0
 89 91  1  0
 91 92  2  0
 92 93  1  0
 93 94  2  0
 14 10  1  0
 29 24  1  0
 61 56  2  0
 93 88  1  0
  1 95  1  0
  1 96  1  0
  1 97  1  0
  2 98  1  0
  2 99  1  0
  3100  1  6
  4101  1  0
  4102  1  0
  4103  1  0
  5104  1  6
  6105  1  1
  7106  1  0
  7107  1  0
 11108  1  0
 11109  1  0
 12110  1  0
 12111  1  0
 13112  1  0
 13113  1  0
 14114  1  6
 15115  1  1
 16116  1  1
 17117  1  0
 17118  1  0
 17119  1  0
 20120  1  0
 21121  1  6
 22122  1  0
 22123  1  0
 22124  1  0
 23125  1  1
 25126  1  0
 26127  1  0
 27128  1  0
 28129  1  0
 29130  1  0
 30131  1  0
 32132  1  0
 32133  1  0
 32134  1  0
 34135  1  0
 34136  1  0
 34137  1  0
 36138  1  0
 36139  1  0
 36140  1  0
 39141  1  6
 40142  1  0
 41143  1  0
 41144  1  0
 41145  1  0
 42146  1  0
 42147  1  0
 42148  1  0
 43149  1  0
 46150  1  1
 47151  1  0
 48152  1  0
 48153  1  0
 48154  1  0
 49155  1  0
 49156  1  0
 49157  1  0
 51158  1  0
 51159  1  0
 51160  1  0
 55161  1  0
 55162  1  0
 57163  1  0
 58164  1  0
 60165  1  0
 61166  1  0
 62167  1  0
 65168  1  6
 66169  1  0
 66170  1  0
 67171  1  0
 67172  1  0
 68173  1  0
 68174  1  0
 69175  1  0
 72176  1  0
 72177  1  0
 73178  1  0
 76179  1  1
 77180  1  0
 78181  1  0
 78182  1  0
 78183  1  0
 79184  1  0
 79185  1  0
 79186  1  0
 80187  1  0
 83188  1  0
 83189  1  0
 84190  1  0
 84191  1  0
 85192  1  0
 85193  1  0
 86194  1  0
 86195  1  0
 87196  1  0
 87197  1  0
 91198  1  0
 92199  1  0
M  END
$$$$

     RDKit          3D

199202  0  0  0  0  0  0  0  0999 V2000
   -5.8551    3.0323    2.5873 C   0  0  0  0  0  0  0  0  0  0  0  0
   -5.5026    1.6138    2.1620 C   0  0  0  0  0  0  0  0  0  0  0  0
   -6.7268    0.6970    1.8775 C   0  0  2  0  0  0  0  0  0  0  0  0
   -7.5787    0.5551    3.1496 C   0  0  0  0  0  0  0  0  0  0  0  0
   -6.2452   -0.7008    1.3431 C   0  0  1  0  0  0  0  0  0  0  0  0
   -7.3598   -1.8110    1.1623 C   0  0  1  0  0  0  0  0  0  0  0  0
   -8.6699   -1.4211    0.4392 C   0  0  0  0  0  0  0  0  0  0  0  0
   -8.6839   -1.4052   -1.0826 C   0  0  0  0  0  0  0  0  0  0  0  0
   -7.9571   -2.1477   -1.7521 O   0  0  0  0  0  0  0  0  0  0  0  0
   -9.5507   -0.5377   -1.7358 N   0  0  0  0  0  0  0  0  0  0  0  0
   -9.3459   -0.3516   -3.1691 C   0  0  0  0  0  0  0  0  0  0  0  0
  -10.1350    0.8919   -3.5404 C   0  0  0  0  0  0  0  0  0  0  0  0
  -10.2659    1.6223   -2.2117 C   0  0  0  0  0  0  0  0  0  0  0  0
  -10.4874    0.4835   -1.2058 C   0  0  1  0  0  0  0  0  0  0  0  0
  -11.9753   -0.0466   -1.1459 C   0  0  1  0  0  0  0  0  0  0  0  0
  -12.2347   -0.8415    0.1673 C   0  0  1  0  0  0  0  0  0  0  0  0
  -12.3724    0.0411    1.4111 C   0  0  0  0  0  0  0  0  0  0  0  0
  -13.4389   -1.7783    0.0985 C   0  0  0  0  0  0  0  0  0  0  0  0
  -13.4105   -2.8955    0.6180 O   0  0  0  0  0  0  0  0  0  0  0  0
  -14.5773   -1.2685   -0.4650 N   0  0  0  0  0  0  0  0  0  0  0  0
  -15.7711   -2.0720   -0.7221 C   0  0  2  0  0  0  0  0  0  0  0  0
  -15.5071   -3.0311   -1.8917 C   0  0  0  0  0  0  0  0  0  0  0  0
  -17.0039   -1.1732   -1.0411 C   0  0  1  0  0  0  0  0  0  0  0  0
  -17.5940   -0.4898    0.1793 C   0  0  0  0  0  0  0  0  0  0  0  0
  -17.0626    0.7083    0.6824 C   0  0  0  0  0  0  0  0  0  0  0  0
  -17.6284    1.3181    1.8052 C   0  0  0  0  0  0  0  0  0  0  0  0
  -18.7234    0.7342    2.4417 C   0  0  0  0  0  0  0  0  0  0  0  0
  -19.2520   -0.4614    1.9587 C   0  0  0  0  0  0  0  0  0  0  0  0
  -18.6929   -1.0703    0.8368 C   0  0  0  0  0  0  0  0  0  0  0  0
  -16.6556   -0.1999   -2.0410 O   0  0  0  0  0  0  0  0  0  0  0  0
  -12.9292    1.0405   -1.1880 O   0  0  0  0  0  0  0  0  0  0  0  0
  -13.5484    1.2551   -2.4576 C   0  0  0  0  0  0  0  0  0  0  0  0
   -6.8405   -3.0305    0.6069 O   0  0  0  0  0  0  0  0  0  0  0  0
   -6.1377   -3.8495    1.5274 C   0  0  0  0  0  0  0  0  0  0  0  0
   -5.3171   -0.5751    0.1770 N   0  0  0  0  0  0  0  0  0  0  0  0
   -5.8431    0.0114   -1.0356 C   0  0  0  0  0  0  0  0  0  0  0  0
   -3.9903   -1.0000    0.3170 C   0  0  0  0  0  0  0  0  0  0  0  0
   -3.6077   -1.4536    1.4111 O   0  0  0  0  0  0  0  0  0  0  0  0
   -2.9923   -1.0754   -0.9120 C   0  0  1  0  0  0  0  0  0  0  0  0
   -2.9165   -0.0075   -2.0379 C   0  0  0  0  0  0  0  0  0  0  0  0
   -2.5943    1.4163   -1.5826 C   0  0  0  0  0  0  0  0  0  0  0  0
   -1.9388   -0.4264   -3.1507 C   0  0  0  0  0  0  0  0  0  0  0  0
   -1.6501   -1.4447   -0.4144 N   0  0  0  0  0  0  0  0  0  0  0  0
   -0.8691   -0.6553    0.3995 C   0  0  0  0  0  0  0  0  0  0  0  0
   -1.2217    0.4594    0.7854 O   0  0  0  0  0  0  0  0  0  0  0  0
    0.4448   -1.3124    0.9224 C   0  0  1  0  0  0  0  0  0  0  0  0
    0.3088   -1.8774    2.3671 C   0  0  0  0  0  0  0  0  0  0  0  0
   -0.4054   -0.9164    3.3278 C   0  0  0  0  0  0  0  0  0  0  0  0
    1.6937   -2.1848    2.9610 C   0  0  0  0  0  0  0  0  0  0  0  0
    0.9605   -2.3064   -0.0759 N   0  0  0  0  0  0  0  0  0  0  0  0
    0.6633   -3.7279    0.0711 C   0  0  0  0  0  0  0  0  0  0  0  0
    1.7533   -1.9103   -1.1473 C   0  0  0  0  0  0  0  0  0  0  0  0
    2.1885   -2.6823   -1.9902 O   0  0  0  0  0  0  0  0  0  0  0  0
    1.9842   -0.5733   -1.1541 O   0  0  0  0  0  0  0  0  0  0  0  0
    2.8479   -0.0726   -2.1779 C   0  0  0  0  0  0  0  0  0  0  0  0
    4.1493    0.3808   -1.5605 C   0  0  0  0  0  0  0  0  0  0  0  0
    4.1800    1.5379   -0.7701 C   0  0  0  0  0  0  0  0  0  0  0  0
    5.3845    1.9967   -0.2257 C   0  0  0  0  0  0  0  0  0  0  0  0
    6.5789    1.3118   -0.4556 C   0  0  0  0  0  0  0  0  0  0  0  0
    6.5385    0.1221   -1.1920 C   0  0  0  0  0  0  0  0  0  0  0  0
    5.3302   -0.3440   -1.7373 C   0  0  0  0  0  0  0  0  0  0  0  0
    7.8409    1.7674   -0.0134 N   0  0  0  0  0  0  0  0  0  0  0  0
    8.1223    2.9562    0.6448 C   0  0  0  0  0  0  0  0  0  0  0  0
    7.2951    3.8152    0.9465 O   0  0  0  0  0  0  0  0  0  0  0  0
    9.6365    3.2106    0.8431 C   0  0  1  0  0  0  0  0  0  0  0  0
    9.9404    3.8812    2.1969 C   0  0  0  0  0  0  0  0  0  0  0  0
    9.4867    5.3425    2.3645 C   0  0  0  0  0  0  0  0  0  0  0  0
    9.9615    6.2991    1.2677 C   0  0  0  0  0  0  0  0  0  0  0  0
   11.3979    6.2550    1.0873 N   0  0  0  0  0  0  0  0  0  0  0  0
   12.2335    6.9293    1.9223 C   0  0  0  0  0  0  0  0  0  0  0  0
   11.8997    7.5678    2.9096 O   0  0  0  0  0  0  0  0  0  0  0  0
   13.5304    6.8087    1.5514 N   0  0  0  0  0  0  0  0  0  0  0  0
   10.4483    1.9861    0.7134 N   0  0  0  0  0  0  0  0  0  0  0  0
   11.6861    2.0356    0.0965 C   0  0  0  0  0  0  0  0  0  0  0  0
   12.0857    3.0345   -0.5080 O   0  0  0  0  0  0  0  0  0  0  0  0
   12.5294    0.7400    0.1853 C   0  0  1  0  0  0  0  0  0  0  0  0
   11.8521   -0.4414   -0.5476 C   0  0  0  0  0  0  0  0  0  0  0  0
   11.7321   -0.2233   -2.0606 C   0  0  0  0  0  0  0  0  0  0  0  0
   12.5819   -1.7590   -0.2739 C   0  0  0  0  0  0  0  0  0  0  0  0
   13.8466    1.0577   -0.3593 N   0  0  0  0  0  0  0  0  0  0  0  0
   15.0151    0.7320    0.2931 C   0  0  0  0  0  0  0  0  0  0  0  0
   15.0576    0.0372    1.2983 O   0  0  0  0  0  0  0  0  0  0  0  0
   16.2378    1.3743   -0.3343 C   0  0  0  0  0  0  0  0  0  0  0  0
   17.5512    0.6566   -0.0202 C   0  0  0  0  0  0  0  0  0  0  0  0
   17.9235   -0.4138   -1.0516 C   0  0  0  0  0  0  0  0  0  0  0  0
   17.0866   -1.6927   -1.0187 C   0  0  0  0  0  0  0  0  0  0  0  0
   17.3133   -2.5311    0.2457 C   0  0  0  0  0  0  0  0  0  0  0  0
   16.8115   -3.8822    0.0791 N   0  0  0  0  0  0  0  0  0  0  0  0
   15.6343   -4.3491    0.5665 C   0  0  0  0  0  0  0  0  0  0  0  0
   14.7908   -3.7841    1.2379 O   0  0  0  0  0  0  0  0  0  0  0  0
   15.5206   -5.7500    0.1454 C   0  0  0  0  0  0  0  0  0  0  0  0
   16.6115   -6.0574   -0.5570 C   0  0  0  0  0  0  0  0  0  0  0  0
   17.4551   -4.8608   -0.6106 C   0  0  0  0  0  0  0  0  0  0  0  0
   18.5259   -4.8153   -1.1873 O   0  0  0  0  0  0  0  0  0  0  0  0
   -4.9372    3.6199    2.7089 H   0  0  0  0  0  0  0  0  0  0  0  0
   -6.4674    3.5234    1.8269 H   0  0  0  0  0  0  0  0  0  0  0  0
   -6.3834    3.0573    3.5447 H   0  0  0  0  0  0  0  0  0  0  0  0
   -4.8715    1.1569    2.9338 H   0  0  0  0  0  0  0  0  0  0  0  0
   -4.8855    1.6990    1.2616 H   0  0  0  0  0  0  0  0  0  0  0  0
   -7.3407    1.1851    1.1115 H   0  0  0  0  0  0  0  0  0  0  0  0
   -7.9756    1.5235    3.4777 H   0  0  0  0  0  0  0  0  0  0  0  0
   -8.4486   -0.0924    2.9999 H   0  0  0  0  0  0  0  0  0  0  0  0
   -6.9923    0.1405    3.9772 H   0  0  0  0  0  0  0  0  0  0  0  0
   -5.6442   -1.0916    2.1716 H   0  0  0  0  0  0  0  0  0  0  0  0
   -7.6936   -2.0539    2.1835 H   0  0  0  0  0  0  0  0  0  0  0  0
   -9.0334   -0.4749    0.8397 H   0  0  0  0  0  0  0  0  0  0  0  0
   -9.4064   -2.1898    0.7026 H   0  0  0  0  0  0  0  0  0  0  0  0
   -8.2758   -0.2151   -3.3656 H   0  0  0  0  0  0  0  0  0  0  0  0
   -9.6876   -1.2414   -3.7077 H   0  0  0  0  0  0  0  0  0  0  0  0
   -9.6272    1.4875   -4.3054 H   0  0  0  0  0  0  0  0  0  0  0  0
  -11.1163    0.6073   -3.9330 H   0  0  0  0  0  0  0  0  0  0  0  0
  -11.0295    2.3989   -2.2001 H   0  0  0  0  0  0  0  0  0  0  0  0
   -9.3131    2.1220   -1.9917 H   0  0  0  0  0  0  0  0  0  0  0  0
  -10.1668    0.8323   -0.2202 H   0  0  0  0  0  0  0  0  0  0  0  0
  -12.1507   -0.7199   -1.9990 H   0  0  0  0  0  0  0  0  0  0  0  0
  -11.3884   -1.5181    0.3088 H   0  0  0  0  0  0  0  0  0  0  0  0
  -11.5083    0.6965    1.5421 H   0  0  0  0  0  0  0  0  0  0  0  0
  -12.4447   -0.5804    2.3111 H   0  0  0  0  0  0  0  0  0  0  0  0
  -13.2750    0.6595    1.3800 H   0  0  0  0  0  0  0  0  0  0  0  0
  -14.5416   -0.3548   -0.8979 H   0  0  0  0  0  0  0  0  0  0  0  0
  -15.9705   -2.6772    0.1723 H   0  0  0  0  0  0  0  0  0  0  0  0
  -14.6396   -3.6699   -1.6928 H   0  0  0  0  0  0  0  0  0  0  0  0
  -15.3115   -2.4868   -2.8199 H   0  0  0  0  0  0  0  0  0  0  0  0
  -16.3672   -3.6891   -2.0527 H   0  0  0  0  0  0  0  0  0  0  0  0
  -17.7913   -1.7935   -1.4898 H   0  0  0  0  0  0  0  0  0  0  0  0
  -16.2012    1.1758    0.2081 H   0  0  0  0  0  0  0  0  0  0  0  0
  -17.2112    2.2484    2.1886 H   0  0  0  0  0  0  0  0  0  0  0  0
  -19.1553    1.2063    3.3207 H   0  0  0  0  0  0  0  0  0  0  0  0
  -20.1003   -0.9201    2.4608 H   0  0  0  0  0  0  0  0  0  0  0  0
  -19.1182   -2.0048    0.4807 H   0  0  0  0  0  0  0  0  0  0  0  0
  -17.3422    0.4937   -1.9943 H   0  0  0  0  0  0  0  0  0  0  0  0
  -12.8949    1.8131   -3.1276 H   0  0  0  0  0  0  0  0  0  0  0  0
  -14.4408    1.8653   -2.2910 H   0  0  0  0  0  0  0  0  0  0  0  0
  -13.8551    0.3155   -2.9256 H   0  0  0  0  0  0  0  0  0  0  0  0
   -5.3257   -3.3102    2.0187 H   0  0  0  0  0  0  0  0  0  0  0  0
   -6.8282   -4.2452    2.2782 H   0  0  0  0  0  0  0  0  0  0  0  0
   -5.7091   -4.6890    0.9749 H   0  0  0  0  0  0  0  0  0  0  0  0
   -5.2888    0.9249   -1.2596 H   0  0  0  0  0  0  0  0  0  0  0  0
   -5.7667   -0.7084   -1.8530 H   0  0  0  0  0  0  0  0  0  0  0  0
   -6.8797    0.3239   -0.9099 H   0  0  0  0  0  0  0  0  0  0  0  0
   -3.3237   -1.9961   -1.4150 H   0  0  0  0  0  0  0  0  0  0  0  0
   -3.8862    0.0332   -2.5347 H   0  0  0  0  0  0  0  0  0  0  0  0
   -3.1507    1.6945   -0.6827 H   0  0  0  0  0  0  0  0  0  0  0  0
   -2.8679    2.1301   -2.3697 H   0  0  0  0  0  0  0  0  0  0  0  0
   -1.5272    1.5590   -1.3921 H   0  0  0  0  0  0  0  0  0  0  0  0
   -2.0042    0.2658   -3.9991 H   0  0  0  0  0  0  0  0  0  0  0  0
   -0.9013   -0.4342   -2.8051 H   0  0  0  0  0  0  0  0  0  0  0  0
   -2.1872   -1.4272   -3.5216 H   0  0  0  0  0  0  0  0  0  0  0  0
   -1.2333   -2.2895   -0.7752 H   0  0  0  0  0  0  0  0  0  0  0  0
    1.1675   -0.4864    0.9655 H   0  0  0  0  0  0  0  0  0  0  0  0
   -0.2786   -2.8041    2.3480 H   0  0  0  0  0  0  0  0  0  0  0  0
    0.0892    0.0603    3.3524 H   0  0  0  0  0  0  0  0  0  0  0  0
   -0.4112   -1.3172    4.3479 H   0  0  0  0  0  0  0  0  0  0  0  0
   -1.4504   -0.7684    3.0424 H   0  0  0  0  0  0  0  0  0  0  0  0
    2.2802   -2.8566    2.3300 H   0  0  0  0  0  0  0  0  0  0  0  0
    2.2786   -1.2669    3.0922 H   0  0  0  0  0  0  0  0  0  0  0  0
    1.5941   -2.6580    3.9421 H   0  0  0  0  0  0  0  0  0  0  0  0
   -0.3991   -3.8723    0.2891 H   0  0  0  0  0  0  0  0  0  0  0  0
    0.9076   -4.2875   -0.8351 H   0  0  0  0  0  0  0  0  0  0  0  0
    1.2579   -4.1362    0.8893 H   0  0  0  0  0  0  0  0  0  0  0  0
    2.3492    0.7958   -2.6291 H   0  0  0  0  0  0  0  0  0  0  0  0
    3.0190   -0.7808   -2.9989 H   0  0  0  0  0  0  0  0  0  0  0  0
    3.2695    2.1042   -0.5982 H   0  0  0  0  0  0  0  0  0  0  0  0
    5.3479    2.9107    0.3598 H   0  0  0  0  0  0  0  0  0  0  0  0
    7.4394   -0.4576   -1.3662 H   0  0  0  0  0  0  0  0  0  0  0  0
    5.3300   -1.2695   -2.3072 H   0  0  0  0  0  0  0  0  0  0  0  0
    8.6480    1.2193   -0.2881 H   0  0  0  0  0  0  0  0  0  0  0  0
    9.9228    3.8752    0.0193 H   0  0  0  0  0  0  0  0  0  0  0  0
    9.4863    3.2871    3.0031 H   0  0  0  0  0  0  0  0  0  0  0  0
   11.0233    3.8466    2.3796 H   0  0  0  0  0  0  0  0  0  0  0  0
    9.8603    5.6938    3.3346 H   0  0  0  0  0  0  0  0  0  0  0  0
    8.3961    5.3969    2.4354 H   0  0  0  0  0  0  0  0  0  0  0  0
    9.6687    7.3249    1.5211 H   0  0  0  0  0  0  0  0  0  0  0  0
    9.4972    6.0563    0.3083 H   0  0  0  0  0  0  0  0  0  0  0  0
   11.7508    6.1248    0.1494 H   0  0  0  0  0  0  0  0  0  0  0  0
   14.1587    7.1967    2.2457 H   0  0  0  0  0  0  0  0  0  0  0  0
   13.7965    5.8860    1.2321 H   0  0  0  0  0  0  0  0  0  0  0  0
   10.3051    1.2726    1.4182 H   0  0  0  0  0  0  0  0  0  0  0  0
   12.6345    0.5085    1.2537 H   0  0  0  0  0  0  0  0  0  0  0  0
   10.8329   -0.5556   -0.1549 H   0  0  0  0  0  0  0  0  0  0  0  0
   11.1669   -1.0447   -2.5179 H   0  0  0  0  0  0  0  0  0  0  0  0
   12.7142   -0.1908   -2.5446 H   0  0  0  0  0  0  0  0  0  0  0  0
   11.2041    0.7076   -2.2906 H   0  0  0  0  0  0  0  0  0  0  0  0
   13.5936   -1.7572   -0.6927 H   0  0  0  0  0  0  0  0  0  0  0  0
   12.6577   -1.9460    0.8035 H   0  0  0  0  0  0  0  0  0  0  0  0
   12.0432   -2.6012   -0.7216 H   0  0  0  0  0  0  0  0  0  0  0  0
   13.8696    1.8170   -1.0354 H   0  0  0  0  0  0  0  0  0  0  0  0
   16.2858    2.3890    0.0831 H   0  0  0  0  0  0  0  0  0  0  0  0
   16.1036    1.4753   -1.4173 H   0  0  0  0  0  0  0  0  0  0  0  0
   18.3503    1.4102   -0.0412 H   0  0  0  0  0  0  0  0  0  0  0  0
   17.5586    0.2356    0.9926 H   0  0  0  0  0  0  0  0  0  0  0  0
   17.8565    0.0236   -2.0577 H   0  0  0  0  0  0  0  0  0  0  0  0
   18.9795   -0.6829   -0.9117 H   0  0  0  0  0  0  0  0  0  0  0  0
   16.0235   -1.4683   -1.1361 H   0  0  0  0  0  0  0  0  0  0  0  0
   17.3602   -2.2861   -1.8997 H   0  0  0  0  0  0  0  0  0  0  0  0
   18.3866   -2.6023    0.4555 H   0  0  0  0  0  0  0  0  0  0  0  0
   16.8186   -2.0700    1.1056 H   0  0  0  0  0  0  0  0  0  0  0  0
   14.6802   -6.3713    0.3991 H   0  0  0  0  0  0  0  0  0  0  0  0
   16.8770   -6.9924   -1.0202 H   0  0  0  0  0  0  0  0  0  0  0  0
  1  2  1  0
  2  3  1  0
  3  4  1  0
  3  5  1  0
  5  6  1  0
  6  7  1  0
  7  8  1  0
  8  9  2  0
  8 10  1  0
 10 11  1  0
 11 12  1  0
 12 13  1  0
 13 14  1  0
 14 15  1  0
 15 16  1  0
 16 17  1  0
 16 18  1  0
 18 19  2  0
 18 20  1  0
 20 21  1  0
 21 22  1  0
 21 23  1  0
 23 24  1  0
 24 25  2  0
 25 26  1  0
 26 27  2  0
 27 28  1  0
 28 29  2  0
 23 30  1  0
 15 31  1  0
 31 32  1  0
  6 33  1  0
 33 34  1  0
  5 35  1  0
 35 36  1  0
 35 37  1  0
 37 38  2  0
 37 39  1  0
 39 40  1  0
 40 41  1  0
 40 42  1  0
 39 43  1  0
 43 44  1  0
 44 45  2  0
 44 46  1  0
 46 47  1  0
 47 48  1  0
 47 49  1  0
 46 50  1  0
 50 51  1  0
 50 52  1  0
 52 53  2  0
 52 54  1  0
 54 55  1  0
 55 56  1  0
 56 57  1  0
 57 58  2  0
 58 59  1  0
 59 60  2  0
 60 61  1  0
 59 62  1  0
 62 63  1  0
 63 64  2  0
 63 65  1  0
 65 66  1  0
 66 67  1  0
 67 68  1  0
 68 69  1  0
 69 70  1  0
 70 71  2  0
 70 72  1  0
 65 73  1  0
 73 74  1  0
 74 75  2  0
 74 76  1  0
 76 77  1  0
 77 78  1  0
 77 79  1  0
 76 80  1  0
 80 81  1  0
 81 82  2  0
 81 83  1  0
 83 84  1  0
 84 85  1  0
 85 86  1  0
 86 87  1  0
 87 88  1  0
 88 89  1  0
 89 90  2  0
 89 91  1  0
 91 92  2  0
 92 93  1  0
 93 94  2  0
 14 10  1  0
 29 24  1  0
 61 56  2  0
 93 88  1  0
  1 95  1  0
  1 96  1  0
  1 97  1  0
  2 98  1  0
  2 99  1  0
  3100  1  6
  4101  1  0
  4102  1  0
  4103  1  0
  5104  1  1
  6105  1  1
  7106  1  0
  7107  1  0
 11108  1  0
 11109  1  0
 12110  1  0
 12111  1  0
 13112  1  0
 13113  1  0
 14114  1  1
 15115  1  6
 16116  1  1
 17117  1  0
 17118  1  0
 17119  1  0
 20120  1  0
 21121  1  1
 22122  1  0
 22123  1  0
 22124  1  0
 23125  1  6
 25126  1  0
 26127  1  0
 27128  1  0
 28129  1  0
 29130  1  0
 30131  1  0
 32132  1  0
 32133  1  0
 32134  1  0
 34135  1  0
 34136  1  0
 34137  1  0
 36138  1  0
 36139  1  0
 36140  1  0
 39141  1  6
 40142  1  0
 41143  1  0
 41144  1  0
 41145  1  0
 42146  1  0
 42147  1  0
 42148  1  0
 43149  1  0
 46150  1  1
 47151  1  0
 48152  1  0
 48153  1  0
 48154  1  0
 49155  1  0
 49156  1  0
 49157  1  0
 51158  1  0
 51159  1  0
 51160  1  0
 55161  1  0
 55162  1  0
 57163  1  0
 58164  1  0
 60165  1  0
 61166  1  0
 62167  1  0
 65168  1  6
 66169  1  0
 66170  1  0
 67171  1  0
 67172  1  0
 68173  1  0
 68174  1  0
 69175  1  0
 72176  1  0
 72177  1  0
 73178  1  0
 76179  1  1
 77180  1  0
 78181  1  0
 78182  1  0
 78183  1  0
 79184  1  0
 79185  1  0
 79186  1  0
 80187  1  0
 83188  1  0
 83189  1  0
 84190  1  0
 84191  1  0
 85192  1  0
 85193  1  0
 86194  1  0
 86195  1  0
 87196  1  0
 87197  1  0
 91198  1  0
 92199  1  0
M  END
$$$$

     RDKit          3D

199202  0  0  0  0  0  0  0  0999 V2000
   -4.4738   -2.2717   -2.5687 C   0  0  0  0  0  0  0  0  0  0  0  0
   -4.1369   -2.3218   -1.0866 C   0  0  0  0  0  0  0  0  0  0  0  0
   -5.3010   -2.1982   -0.0717 C   0  0  2  0  0  0  0  0  0  0  0  0
   -6.3758   -3.2440   -0.3731 C   0  0  0  0  0  0  0  0  0  0  0  0
   -5.7536   -0.7139    0.1786 C   0  0  1  0  0  0  0  0  0  0  0  0
   -6.6433    0.0100   -0.8910 C   0  0  1  0  0  0  0  0  0  0  0  0
   -8.0661   -0.5343   -1.1249 C   0  0  0  0  0  0  0  0  0  0  0  0
   -8.2814   -1.1112   -2.5145 C   0  0  0  0  0  0  0  0  0  0  0  0
   -7.3888   -1.0698   -3.3627 O   0  0  0  0  0  0  0  0  0  0  0  0
   -9.4695   -1.7681   -2.7882 N   0  0  0  0  0  0  0  0  0  0  0  0
   -9.3611   -2.8959   -3.7142 C   0  0  0  0  0  0  0  0  0  0  0  0
  -10.2024   -4.0106   -3.0803 C   0  0  0  0  0  0  0  0  0  0  0  0
  -10.6931   -3.4329   -1.7463 C   0  0  0  0  0  0  0  0  0  0  0  0
  -10.7334   -1.9357   -2.0450 C   0  0  1  0  0  0  0  0  0  0  0  0
  -11.1715   -1.0117   -0.8851 C   0  0  1  0  0  0  0  0  0  0  0  0
  -11.4300    0.4341   -1.3786 C   0  0  1  0  0  0  0  0  0  0  0  0
  -12.6893    0.6235   -2.2321 C   0  0  0  0  0  0  0  0  0  0  0  0
  -11.4319    1.3759   -0.1813 C   0  0  0  0  0  0  0  0  0  0  0  0
  -10.4530    2.0635    0.0966 O   0  0  0  0  0  0  0  0  0  0  0  0
  -12.5681    1.3613    0.5828 N   0  0  0  0  0  0  0  0  0  0  0  0
  -12.7793    2.2425    1.7318 C   0  0  2  0  0  0  0  0  0  0  0  0
  -12.2478    1.5691    2.9967 C   0  0  0  0  0  0  0  0  0  0  0  0
  -14.2873    2.5897    1.8753 C   0  0  1  0  0  0  0  0  0  0  0  0
  -14.7777    3.4819    0.7494 C   0  0  0  0  0  0  0  0  0  0  0  0
  -15.5372    2.9895   -0.3223 C   0  0  0  0  0  0  0  0  0  0  0  0
  -15.9530    3.8377   -1.3522 C   0  0  0  0  0  0  0  0  0  0  0  0
  -15.6150    5.1890   -1.3267 C   0  0  0  0  0  0  0  0  0  0  0  0
  -14.8597    5.6932   -0.2715 C   0  0  0  0  0  0  0  0  0  0  0  0
  -14.4440    4.8467    0.7591 C   0  0  0  0  0  0  0  0  0  0  0  0
  -15.0646    1.3770    1.9165 O   0  0  0  0  0  0  0  0  0  0  0  0
  -12.4111   -1.5253   -0.3426 O   0  0  0  0  0  0  0  0  0  0  0  0
  -12.2674   -2.0782    0.9587 C   0  0  0  0  0  0  0  0  0  0  0  0
   -6.7938    1.3911   -0.4848 O   0  0  0  0  0  0  0  0  0  0  0  0
   -5.8389    2.2594   -1.0862 C   0  0  0  0  0  0  0  0  0  0  0  0
   -6.1731   -0.4965    1.6120 N   0  0  0  0  0  0  0  0  0  0  0  0
   -7.5249   -0.8792    2.0007 C   0  0  0  0  0  0  0  0  0  0  0  0
   -5.5752    0.4267    2.4887 C   0  0  0  0  0  0  0  0  0  0  0  0
   -6.2484    0.8851    3.4334 O   0  0  0  0  0  0  0  0  0  0  0  0
   -4.1373    0.9894    2.2366 C   0  0  1  0  0  0  0  0  0  0  0  0
   -3.4912    1.6477    3.5001 C   0  0  0  0  0  0  0  0  0  0  0  0
   -3.4885    0.7343    4.7337 C   0  0  0  0  0  0  0  0  0  0  0  0
   -4.0877    3.0163    3.8322 C   0  0  0  0  0  0  0  0  0  0  0  0
   -3.1750    0.0124    1.7085 N   0  0  0  0  0  0  0  0  0  0  0  0
   -2.0882    0.4268    0.9462 C   0  0  0  0  0  0  0  0  0  0  0  0
   -1.9780    1.5816    0.5504 O   0  0  0  0  0  0  0  0  0  0  0  0
   -1.0350   -0.6794    0.6988 C   0  0  1  0  0  0  0  0  0  0  0  0
   -0.4231   -0.7272   -0.7345 C   0  0  0  0  0  0  0  0  0  0  0  0
    0.1005    0.5623   -1.3742 C   0  0  0  0  0  0  0  0  0  0  0  0
    0.6118   -1.8508   -0.8632 C   0  0  0  0  0  0  0  0  0  0  0  0
   -0.1525   -0.8379    1.8797 N   0  0  0  0  0  0  0  0  0  0  0  0
   -0.4601   -1.9385    2.7852 C   0  0  0  0  0  0  0  0  0  0  0  0
    0.8479    0.0365    2.2771 C   0  0  0  0  0  0  0  0  0  0  0  0
    1.4317   -0.0591    3.3542 O   0  0  0  0  0  0  0  0  0  0  0  0
    1.1434    0.9849    1.3614 O   0  0  0  0  0  0  0  0  0  0  0  0
    2.2728    1.8249    1.6719 C   0  0  0  0  0  0  0  0  0  0  0  0
    3.6043    1.1395    1.4364 C   0  0  0  0  0  0  0  0  0  0  0  0
    3.8104    0.3286    0.3189 C   0  0  0  0  0  0  0  0  0  0  0  0
    5.0144   -0.3630    0.1376 C   0  0  0  0  0  0  0  0  0  0  0  0
    6.0522   -0.2400    1.0609 C   0  0  0  0  0  0  0  0  0  0  0  0
    5.8895    0.6407    2.1306 C   0  0  0  0  0  0  0  0  0  0  0  0
    4.6741    1.3159    2.3278 C   0  0  0  0  0  0  0  0  0  0  0  0
    7.2514   -0.9845    0.9824 N   0  0  0  0  0  0  0  0  0  0  0  0
    7.4482   -2.1417    0.2423 C   0  0  0  0  0  0  0  0  0  0  0  0
    6.6199   -2.6612   -0.5100 O   0  0  0  0  0  0  0  0  0  0  0  0
    8.7663   -2.8643    0.5895 C   0  0  1  0  0  0  0  0  0  0  0  0
    8.9951   -4.1427   -0.2474 C   0  0  0  0  0  0  0  0  0  0  0  0
    9.7072   -3.9656   -1.5933 C   0  0  0  0  0  0  0  0  0  0  0  0
    9.0794   -2.9547   -2.5500 C   0  0  0  0  0  0  0  0  0  0  0  0
   10.0212   -2.5326   -3.5684 N   0  0  0  0  0  0  0  0  0  0  0  0
   11.0306   -1.6695   -3.2569 C   0  0  0  0  0  0  0  0  0  0  0  0
   11.3202   -1.2658   -2.1350 O   0  0  0  0  0  0  0  0  0  0  0  0
   11.7333   -1.2955   -4.3562 N   0  0  0  0  0  0  0  0  0  0  0  0
    9.9415   -1.9916    0.5764 N   0  0  0  0  0  0  0  0  0  0  0  0
   10.8233   -1.9395    1.6357 C   0  0  0  0  0  0  0  0  0  0  0  0
   10.5284   -2.3799    2.7465 O   0  0  0  0  0  0  0  0  0  0  0  0
   12.2673   -1.5029    1.2780 C   0  0  1  0  0  0  0  0  0  0  0  0
   13.0736   -2.7160    0.7405 C   0  0  0  0  0  0  0  0  0  0  0  0
   14.4883   -2.3113    0.3059 C   0  0  0  0  0  0  0  0  0  0  0  0
   13.1756   -3.8422    1.7760 C   0  0  0  0  0  0  0  0  0  0  0  0
   12.2547   -0.4317    0.2730 N   0  0  0  0  0  0  0  0  0  0  0  0
   12.5377    0.8740    0.5888 C   0  0  0  0  0  0  0  0  0  0  0  0
   12.7023    1.2704    1.7391 O   0  0  0  0  0  0  0  0  0  0  0  0
   12.6913    1.7867   -0.6175 C   0  0  0  0  0  0  0  0  0  0  0  0
   14.0309    2.5321   -0.5786 C   0  0  0  0  0  0  0  0  0  0  0  0
   15.2224    1.5874   -0.7686 C   0  0  0  0  0  0  0  0  0  0  0  0
   16.5869    2.2004   -0.4425 C   0  0  0  0  0  0  0  0  0  0  0  0
   17.0917    3.2381   -1.4480 C   0  0  0  0  0  0  0  0  0  0  0  0
   16.5996    4.5769   -1.2006 N   0  0  0  0  0  0  0  0  0  0  0  0
   15.8476    5.2977   -2.0675 C   0  0  0  0  0  0  0  0  0  0  0  0
   15.3980    4.9752   -3.1516 O   0  0  0  0  0  0  0  0  0  0  0  0
   15.6735    6.6322   -1.4806 C   0  0  0  0  0  0  0  0  0  0  0  0
   16.3690    6.6693   -0.3441 C   0  0  0  0  0  0  0  0  0  0  0  0
   17.0140    5.3619   -0.1762 C   0  0  0  0  0  0  0  0  0  0  0  0
   17.8006    5.1084    0.7188 O   0  0  0  0  0  0  0  0  0  0  0  0
   -3.5802   -2.5151   -3.1534 H   0  0  0  0  0  0  0  0  0  0  0  0
   -4.7866   -1.2743   -2.8742 H   0  0  0  0  0  0  0  0  0  0  0  0
   -5.2461   -2.9932   -2.8429 H   0  0  0  0  0  0  0  0  0  0  0  0
   -3.3971   -1.5487   -0.8788 H   0  0  0  0  0  0  0  0  0  0  0  0
   -3.6311   -3.2789   -0.8964 H   0  0  0  0  0  0  0  0  0  0  0  0
   -4.8560   -2.5197    0.8841 H   0  0  0  0  0  0  0  0  0  0  0  0
   -5.9145   -4.2343   -0.4765 H   0  0  0  0  0  0  0  0  0  0  0  0
   -6.9116   -3.0478   -1.3013 H   0  0  0  0  0  0  0  0  0  0  0  0
   -7.1049   -3.3358    0.4337 H   0  0  0  0  0  0  0  0  0  0  0  0
   -4.8308   -0.1438    0.0978 H   0  0  0  0  0  0  0  0  0  0  0  0
   -6.0915    0.0039   -1.8323 H   0  0  0  0  0  0  0  0  0  0  0  0
   -8.7713    0.2866   -1.0003 H   0  0  0  0  0  0  0  0  0  0  0  0
   -8.3021   -1.3329   -0.4252 H   0  0  0  0  0  0  0  0  0  0  0  0
   -9.7777   -2.5912   -4.6795 H   0  0  0  0  0  0  0  0  0  0  0  0
   -8.3251   -3.2224   -3.8596 H   0  0  0  0  0  0  0  0  0  0  0  0
   -9.6296   -4.9313   -2.9338 H   0  0  0  0  0  0  0  0  0  0  0  0
  -11.0523   -4.2536   -3.7320 H   0  0  0  0  0  0  0  0  0  0  0  0
   -9.9679   -3.6529   -0.9522 H   0  0  0  0  0  0  0  0  0  0  0  0
  -11.6632   -3.8497   -1.4612 H   0  0  0  0  0  0  0  0  0  0  0  0
  -11.5152   -1.8228   -2.8122 H   0  0  0  0  0  0  0  0  0  0  0  0
  -10.4155   -1.0095   -0.0975 H   0  0  0  0  0  0  0  0  0  0  0  0
  -10.5913    0.7594   -2.0073 H   0  0  0  0  0  0  0  0  0  0  0  0
  -13.5914    0.2340   -1.7500 H   0  0  0  0  0  0  0  0  0  0  0  0
  -12.8602    1.6885   -2.4279 H   0  0  0  0  0  0  0  0  0  0  0  0
  -12.5846    0.1270   -3.2032 H   0  0  0  0  0  0  0  0  0  0  0  0
  -13.3042    0.6953    0.3721 H   0  0  0  0  0  0  0  0  0  0  0  0
  -12.2024    3.1596    1.5723 H   0  0  0  0  0  0  0  0  0  0  0  0
  -12.7399    0.6062    3.1792 H   0  0  0  0  0  0  0  0  0  0  0  0
  -12.4094    2.2058    3.8726 H   0  0  0  0  0  0  0  0  0  0  0  0
  -11.1715    1.3751    2.9170 H   0  0  0  0  0  0  0  0  0  0  0  0
  -14.4704    3.1168    2.8242 H   0  0  0  0  0  0  0  0  0  0  0  0
  -15.8088    1.9338   -0.3667 H   0  0  0  0  0  0  0  0  0  0  0  0
  -16.5381    3.4405   -2.1789 H   0  0  0  0  0  0  0  0  0  0  0  0
  -15.9432    5.8458   -2.1268 H   0  0  0  0  0  0  0  0  0  0  0  0
  -14.5912    6.7473   -0.2490 H   0  0  0  0  0  0  0  0  0  0  0  0
  -13.8541    5.2654    1.5755 H   0  0  0  0  0  0  0  0  0  0  0  0
  -15.0193    1.0476    2.8311 H   0  0  0  0  0  0  0  0  0  0  0  0
  -11.9109   -1.3195    1.6622 H   0  0  0  0  0  0  0  0  0  0  0  0
  -13.2481   -2.4258    1.2883 H   0  0  0  0  0  0  0  0  0  0  0  0
  -11.5793   -2.9285    0.9449 H   0  0  0  0  0  0  0  0  0  0  0  0
   -4.8182    1.9379   -0.8500 H   0  0  0  0  0  0  0  0  0  0  0  0
   -5.9774    2.2864   -2.1752 H   0  0  0  0  0  0  0  0  0  0  0  0
   -5.9900    3.2689   -0.6882 H   0  0  0  0  0  0  0  0  0  0  0  0
   -7.6222   -0.9360    3.0914 H   0  0  0  0  0  0  0  0  0  0  0  0
   -8.2329   -0.1304    1.6348 H   0  0  0  0  0  0  0  0  0  0  0  0
   -7.7804   -1.8651    1.6213 H   0  0  0  0  0  0  0  0  0  0  0  0
   -4.2601    1.7742    1.4790 H   0  0  0  0  0  0  0  0  0  0  0  0
   -2.4323    1.8407    3.2707 H   0  0  0  0  0  0  0  0  0  0  0  0
   -4.4861    0.6198    5.1712 H   0  0  0  0  0  0  0  0  0  0  0  0
   -2.8402    1.1460    5.5181 H   0  0  0  0  0  0  0  0  0  0  0  0
   -3.1093   -0.2652    4.4906 H   0  0  0  0  0  0  0  0  0  0  0  0
   -5.1379    2.9580    4.1314 H   0  0  0  0  0  0  0  0  0  0  0  0
   -3.5367    3.4814    4.6603 H   0  0  0  0  0  0  0  0  0  0  0  0
   -4.0142    3.6900    2.9707 H   0  0  0  0  0  0  0  0  0  0  0  0
   -3.1624   -0.8951    2.1546 H   0  0  0  0  0  0  0  0  0  0  0  0
   -1.6330   -1.6054    0.7072 H   0  0  0  0  0  0  0  0  0  0  0  0
   -1.2560   -1.0083   -1.3935 H   0  0  0  0  0  0  0  0  0  0  0  0
    1.0139    0.9363   -0.9212 H   0  0  0  0  0  0  0  0  0  0  0  0
   -0.6414    1.3650   -1.3690 H   0  0  0  0  0  0  0  0  0  0  0  0
    0.3404    0.3814   -2.4314 H   0  0  0  0  0  0  0  0  0  0  0  0
    1.5033   -1.6472   -0.2651 H   0  0  0  0  0  0  0  0  0  0  0  0
    0.1876   -2.8037   -0.5281 H   0  0  0  0  0  0  0  0  0  0  0  0
    0.9274   -1.9739   -1.9057 H   0  0  0  0  0  0  0  0  0  0  0  0
   -0.4650   -2.8761    2.2218 H   0  0  0  0  0  0  0  0  0  0  0  0
    0.2663   -2.0349    3.5953 H   0  0  0  0  0  0  0  0  0  0  0  0
   -1.4464   -1.7708    3.2216 H   0  0  0  0  0  0  0  0  0  0  0  0
    2.1854    2.2048    2.6962 H   0  0  0  0  0  0  0  0  0  0  0  0
    2.2166    2.6956    1.0086 H   0  0  0  0  0  0  0  0  0  0  0  0
    3.0245    0.1980   -0.4211 H   0  0  0  0  0  0  0  0  0  0  0  0
    5.1021   -0.9935   -0.7409 H   0  0  0  0  0  0  0  0  0  0  0  0
    6.6809    0.7758    2.8638 H   0  0  0  0  0  0  0  0  0  0  0  0
    4.5599    1.9561    3.1990 H   0  0  0  0  0  0  0  0  0  0  0  0
    7.9727   -0.7760    1.6718 H   0  0  0  0  0  0  0  0  0  0  0  0
    8.6059   -3.2076    1.6209 H   0  0  0  0  0  0  0  0  0  0  0  0
    8.0485   -4.6707   -0.4054 H   0  0  0  0  0  0  0  0  0  0  0  0
    9.6177   -4.8268    0.3482 H   0  0  0  0  0  0  0  0  0  0  0  0
    9.7467   -4.9380   -2.0966 H   0  0  0  0  0  0  0  0  0  0  0  0
   10.7521   -3.7182   -1.3938 H   0  0  0  0  0  0  0  0  0  0  0  0
    8.2152   -3.3942   -3.0573 H   0  0  0  0  0  0  0  0  0  0  0  0
    8.7484   -2.0460   -2.0415 H   0  0  0  0  0  0  0  0  0  0  0  0
    9.6353   -2.3837   -4.4910 H   0  0  0  0  0  0  0  0  0  0  0  0
   12.5653   -0.7603   -4.1451 H   0  0  0  0  0  0  0  0  0  0  0  0
   11.8695   -2.0054   -5.0593 H   0  0  0  0  0  0  0  0  0  0  0  0
   10.2633   -1.6081   -0.3119 H   0  0  0  0  0  0  0  0  0  0  0  0
   12.7305   -1.1208    2.1935 H   0  0  0  0  0  0  0  0  0  0  0  0
   12.5679   -3.1254   -0.1443 H   0  0  0  0  0  0  0  0  0  0  0  0
   15.0321   -1.8308    1.1238 H   0  0  0  0  0  0  0  0  0  0  0  0
   15.0589   -3.1880   -0.0196 H   0  0  0  0  0  0  0  0  0  0  0  0
   14.4546   -1.6221   -0.5433 H   0  0  0  0  0  0  0  0  0  0  0  0
   12.1938   -4.2797    1.9795 H   0  0  0  0  0  0  0  0  0  0  0  0
   13.5947   -3.4774    2.7172 H   0  0  0  0  0  0  0  0  0  0  0  0
   13.8170   -4.6517    1.4109 H   0  0  0  0  0  0  0  0  0  0  0  0
   12.0663   -0.6817   -0.6991 H   0  0  0  0  0  0  0  0  0  0  0  0
   12.6032    1.2200   -1.5509 H   0  0  0  0  0  0  0  0  0  0  0  0
   11.8630    2.5006   -0.5884 H   0  0  0  0  0  0  0  0  0  0  0  0
   14.1303    3.0702    0.3696 H   0  0  0  0  0  0  0  0  0  0  0  0
   14.0254    3.2741   -1.3786 H   0  0  0  0  0  0  0  0  0  0  0  0
   15.2230    1.1966   -1.7957 H   0  0  0  0  0  0  0  0  0  0  0  0
   15.1022    0.7193   -0.1117 H   0  0  0  0  0  0  0  0  0  0  0  0
   16.5768    2.6086    0.5735 H   0  0  0  0  0  0  0  0  0  0  0  0
   17.3121    1.3754   -0.4361 H   0  0  0  0  0  0  0  0  0  0  0  0
   16.8560    2.9357   -2.4742 H   0  0  0  0  0  0  0  0  0  0  0  0
   18.1879    3.2905   -1.3659 H   0  0  0  0  0  0  0  0  0  0  0  0
   15.0873    7.4102   -1.9352 H   0  0  0  0  0  0  0  0  0  0  0  0
   16.4934    7.4827    0.3465 H   0  0  0  0  0  0  0  0  0  0  0  0
  1  2  1  0
  2  3  1  0
  3  4  1  0
  3  5  1  0
  5  6  1  0
  6  7  1  0
  7  8  1  0
  8  9  2  0
  8 10  1  0
 10 11  1  0
 11 12  1  0
 12 13  1  0
 13 14  1  0
 14 15  1  0
 15 16  1  0
 16 17  1  0
 16 18  1  0
 18 19  2  0
 18 20  1  0
 20 21  1  0
 21 22  1  0
 21 23  1  0
 23 24  1  0
 24 25  2  0
 25 26  1  0
 26 27  2  0
 27 28  1  0
 28 29  2  0
 23 30  1  0
 15 31  1  0
 31 32  1  0
  6 33  1  0
 33 34  1  0
  5 35  1  0
 35 36  1  0
 35 37  1  0
 37 38  2  0
 37 39  1  0
 39 40  1  0
 40 41  1  0
 40 42  1  0
 39 43  1  0
 43 44  1  0
 44 45  2  0
 44 46  1  0
 46 47  1  0
 47 48  1  0
 47 49  1  0
 46 50  1  0
 50 51  1  0
 50 52  1  0
 52 53  2  0
 52 54  1  0
 54 55  1  0
 55 56  1  0
 56 57  1  0
 57 58  2  0
 58 59  1  0
 59 60  2  0
 60 61  1  0
 59 62  1  0
 62 63  1  0
 63 64  2  0
 63 65  1  0
 65 66  1  0
 66 67  1  0
 67 68  1  0
 68 69  1  0
 69 70  1  0
 70 71  2  0
 70 72  1  0
 65 73  1  0
 73 74  1  0
 74 75  2  0
 74 76  1  0
 76 77  1  0
 77 78  1  0
 77 79  1  0
 76 80  1  0
 80 81  1  0
 81 82  2  0
 81 83  1  0
 83 84  1  0
 84 85  1  0
 85 86  1  0
 86 87  1  0
 87 88  1  0
 88 89  1  0
 89 90  2  0
 89 91  1  0
 91 92  2  0
 92 93  1  0
 93 94  2  0
 14 10  1  0
 29 24  1  0
 61 56  2  0
 93 88  1  0
  1 95  1  0
  1 96  1  0
  1 97  1  0
  2 98  1  0
  2 99  1  0
  3100  1  1
  4101  1  0
  4102  1  0
  4103  1  0
  5104  1  1
  6105  1  6
  7106  1  0
  7107  1  0
 11108  1  0
 11109  1  0
 12110  1  0
 12111  1  0
 13112  1  0
 13113  1  0
 14114  1  6
 15115  1  1
 16116  1  6
 17117  1  0
 17118  1  0
 17119  1  0
 20120  1  0
 21121  1  6
 22122  1  0
 22123  1  0
 22124  1  0
 23125  1  1
 25126  1  0
 26127  1  0
 27128  1  0
 28129  1  0
 29130  1  0
 30131  1  0
 32132  1  0
 32133  1  0
 32134  1  0
 34135  1  0
 34136  1  0
 34137  1  0
 36138  1  0
 36139  1  0
 36140  1  0
 39141  1  6
 40142  1  0
 41143  1  0
 41144  1  0
 41145  1  0
 42146  1  0
 42147  1  0
 42148  1  0
 43149  1  0
 46150  1  6
 47151  1  0
 48152  1  0
 48153  1  0
 48154  1  0
 49155  1  0
 49156  1  0
 49157  1  0
 51158  1  0
 51159  1  0
 51160  1  0
 55161  1  0
 55162  1  0
 57163  1  0
 58164  1  0
 60165  1  0
 61166  1  0
 62167  1  0
 65168  1  1
 66169  1  0
 66170  1  0
 67171  1  0
 67172  1  0
 68173  1  0
 68174  1  0
 69175  1  0
 72176  1  0
 72177  1  0
 73178  1  0
 76179  1  1
 77180  1  0
 78181  1  0
 78182  1  0
 78183  1  0
 79184  1  0
 79185  1  0
 79186  1  0
 80187  1  0
 83188  1  0
 83189  1  0
 84190  1  0
 84191  1  0
 85192  1  0
 85193  1  0
 86194  1  0
 86195  1  0
 87196  1  0
 87197  1  0
 91198  1  0
 92199  1  0
M  END
$$$$

     RDKit          3D

199202  0  0  0  0  0  0  0  0999 V2000
   -4.7011   -2.8315    2.2205 C   0  0  0  0  0  0  0  0  0  0  0  0
   -4.6811   -1.5804    3.0902 C   0  0  0  0  0  0  0  0  0  0  0  0
   -6.0691   -0.9435    3.3585 C   0  0  2  0  0  0  0  0  0  0  0  0
   -7.0071   -1.9995    3.9548 C   0  0  0  0  0  0  0  0  0  0  0  0
   -6.6239   -0.1414    2.1145 C   0  0  1  0  0  0  0  0  0  0  0  0
   -8.1577    0.2540    2.2024 C   0  0  1  0  0  0  0  0  0  0  0  0
   -8.6294    1.0514    0.9833 C   0  0  0  0  0  0  0  0  0  0  0  0
   -9.4188    0.5139   -0.2055 C   0  0  0  0  0  0  0  0  0  0  0  0
  -10.1854    1.3311   -0.7561 O   0  0  0  0  0  0  0  0  0  0  0  0
   -9.2563   -0.7200   -0.7803 N   0  0  0  0  0  0  0  0  0  0  0  0
   -8.5921   -1.9209   -0.2881 C   0  0  0  0  0  0  0  0  0  0  0  0
   -8.9234   -3.0141   -1.2955 C   0  0  0  0  0  0  0  0  0  0  0  0
   -9.0956   -2.2445   -2.5907 C   0  0  0  0  0  0  0  0  0  0  0  0
   -9.7872   -0.9539   -2.1445 C   0  0  1  0  0  0  0  0  0  0  0  0
  -11.3555   -0.9577   -2.1708 C   0  0  1  0  0  0  0  0  0  0  0  0
  -11.8563    0.1193   -3.1758 C   0  0  1  0  0  0  0  0  0  0  0  0
  -12.0547   -0.4183   -4.5927 C   0  0  0  0  0  0  0  0  0  0  0  0
  -13.1049    0.8200   -2.6493 C   0  0  0  0  0  0  0  0  0  0  0  0
  -14.1895    0.7835   -3.2203 O   0  0  0  0  0  0  0  0  0  0  0  0
  -12.8947    1.5333   -1.4879 N   0  0  0  0  0  0  0  0  0  0  0  0
  -13.9335    2.3154   -0.7991 C   0  0  2  0  0  0  0  0  0  0  0  0
  -15.0916    1.4233   -0.3447 C   0  0  0  0  0  0  0  0  0  0  0  0
  -14.3910    3.5335   -1.6526 C   0  0  1  0  0  0  0  0  0  0  0  0
  -15.3675    4.4468   -0.9419 C   0  0  0  0  0  0  0  0  0  0  0  0
  -16.7130    4.4779   -1.3399 C   0  0  0  0  0  0  0  0  0  0  0  0
  -17.6307    5.3052   -0.6885 C   0  0  0  0  0  0  0  0  0  0  0  0
  -17.2146    6.1096    0.3705 C   0  0  0  0  0  0  0  0  0  0  0  0
  -15.8814    6.0909    0.7758 C   0  0  0  0  0  0  0  0  0  0  0  0
  -14.9637    5.2658    0.1241 C   0  0  0  0  0  0  0  0  0  0  0  0
  -13.2336    4.3123   -1.9972 O   0  0  0  0  0  0  0  0  0  0  0  0
  -11.8450   -2.2755   -2.4756 O   0  0  0  0  0  0  0  0  0  0  0  0
  -13.1842   -2.5040   -2.0520 C   0  0  0  0  0  0  0  0  0  0  0  0
   -9.0161   -0.8542    2.4519 O   0  0  0  0  0  0  0  0  0  0  0  0
  -10.2697   -0.5049    3.0295 C   0  0  0  0  0  0  0  0  0  0  0  0
   -5.7644    1.0902    1.9060 N   0  0  0  0  0  0  0  0  0  0  0  0
   -5.9606    2.2058    2.8371 C   0  0  0  0  0  0  0  0  0  0  0  0
   -4.8329    1.3281    0.8920 C   0  0  0  0  0  0  0  0  0  0  0  0
   -4.2371    2.4165    0.8359 O   0  0  0  0  0  0  0  0  0  0  0  0
   -4.4033    0.2192   -0.0983 C   0  0  1  0  0  0  0  0  0  0  0  0
   -4.6413    0.5615   -1.5943 C   0  0  0  0  0  0  0  0  0  0  0  0
   -6.1246    0.6535   -1.9344 C   0  0  0  0  0  0  0  0  0  0  0  0
   -3.9257    1.8233   -2.0944 C   0  0  0  0  0  0  0  0  0  0  0  0
   -2.9625    0.0701    0.1563 N   0  0  0  0  0  0  0  0  0  0  0  0
   -2.2517   -1.0611   -0.1589 C   0  0  0  0  0  0  0  0  0  0  0  0
   -2.8270   -2.0578   -0.5977 O   0  0  0  0  0  0  0  0  0  0  0  0
   -0.6929   -0.9770   -0.0278 C   0  0  1  0  0  0  0  0  0  0  0  0
   -0.1533    0.0742    0.9959 C   0  0  0  0  0  0  0  0  0  0  0  0
    1.1636   -0.3153    1.6842 C   0  0  0  0  0  0  0  0  0  0  0  0
    0.0791    1.4286    0.2983 C   0  0  0  0  0  0  0  0  0  0  0  0
   -0.1298   -2.3286    0.2036 N   0  0  0  0  0  0  0  0  0  0  0  0
   -0.6912   -3.1501    1.2649 C   0  0  0  0  0  0  0  0  0  0  0  0
    0.7870   -2.9202   -0.6520 C   0  0  0  0  0  0  0  0  0  0  0  0
    1.1729   -4.0786   -0.5441 O   0  0  0  0  0  0  0  0  0  0  0  0
    1.2427   -2.0578   -1.5989 O   0  0  0  0  0  0  0  0  0  0  0  0
    2.2829   -2.5537   -2.4524 C   0  0  0  0  0  0  0  0  0  0  0  0
    3.6343   -2.1922   -1.8851 C   0  0  0  0  0  0  0  0  0  0  0  0
    3.9094   -0.8832   -1.4704 C   0  0  0  0  0  0  0  0  0  0  0  0
    5.1539   -0.5557   -0.9244 C   0  0  0  0  0  0  0  0  0  0  0  0
    6.1567   -1.5241   -0.8033 C   0  0  0  0  0  0  0  0  0  0  0  0
    5.8933   -2.8252   -1.2331 C   0  0  0  0  0  0  0  0  0  0  0  0
    4.6416   -3.1574   -1.7661 C   0  0  0  0  0  0  0  0  0  0  0  0
    7.3705   -1.1221   -0.2127 N   0  0  0  0  0  0  0  0  0  0  0  0
    8.5635   -1.8225   -0.1840 C   0  0  0  0  0  0  0  0  0  0  0  0
    8.7984   -2.8735   -0.7847 O   0  0  0  0  0  0  0  0  0  0  0  0
    9.6354   -1.1466    0.7073 C   0  0  1  0  0  0  0  0  0  0  0  0
    9.7345   -1.7848    2.0995 C   0  0  0  0  0  0  0  0  0  0  0  0
    9.8728   -3.3094    2.2029 C   0  0  0  0  0  0  0  0  0  0  0  0
   11.1506   -3.9096    1.6242 C   0  0  0  0  0  0  0  0  0  0  0  0
   11.1029   -4.0246    0.1823 N   0  0  0  0  0  0  0  0  0  0  0  0
   12.1151   -4.6522   -0.4825 C   0  0  0  0  0  0  0  0  0  0  0  0
   13.1969   -4.9592   -0.0087 O   0  0  0  0  0  0  0  0  0  0  0  0
   11.7958   -4.9048   -1.7744 N   0  0  0  0  0  0  0  0  0  0  0  0
   10.9092   -1.1192    0.0070 N   0  0  0  0  0  0  0  0  0  0  0  0
   11.2839   -0.0253   -0.7407 C   0  0  0  0  0  0  0  0  0  0  0  0
   10.6454    1.0304   -0.7402 O   0  0  0  0  0  0  0  0  0  0  0  0
   12.5690   -0.1982   -1.5741 C   0  0  1  0  0  0  0  0  0  0  0  0
   12.2299   -0.2371   -3.0814 C   0  0  0  0  0  0  0  0  0  0  0  0
   13.5036   -0.2724   -3.9354 C   0  0  0  0  0  0  0  0  0  0  0  0
   11.3604   -1.4460   -3.4353 C   0  0  0  0  0  0  0  0  0  0  0  0
   13.3876    0.9737   -1.2606 N   0  0  0  0  0  0  0  0  0  0  0  0
   14.3267    0.9302   -0.2522 C   0  0  0  0  0  0  0  0  0  0  0  0
   14.6269   -0.0969    0.3444 O   0  0  0  0  0  0  0  0  0  0  0  0
   14.9577    2.2844    0.0150 C   0  0  0  0  0  0  0  0  0  0  0  0
   16.0814    2.2397    1.0513 C   0  0  0  0  0  0  0  0  0  0  0  0
   15.5533    2.1851    2.4871 C   0  0  0  0  0  0  0  0  0  0  0  0
   16.6433    1.9633    3.5438 C   0  0  0  0  0  0  0  0  0  0  0  0
   17.4569    3.2091    3.9068 C   0  0  0  0  0  0  0  0  0  0  0  0
   18.4427    3.5817    2.9151 N   0  0  0  0  0  0  0  0  0  0  0  0
   18.4199    4.7284    2.1907 C   0  0  0  0  0  0  0  0  0  0  0  0
   17.5872    5.6163    2.1801 O   0  0  0  0  0  0  0  0  0  0  0  0
   19.6314    4.7404    1.3614 C   0  0  0  0  0  0  0  0  0  0  0  0
   20.3324    3.6445    1.6526 C   0  0  0  0  0  0  0  0  0  0  0  0
   19.5942    2.9033    2.6817 C   0  0  0  0  0  0  0  0  0  0  0  0
   20.0087    1.8867    3.2061 O   0  0  0  0  0  0  0  0  0  0  0  0
   -3.6788   -3.1778    2.0472 H   0  0  0  0  0  0  0  0  0  0  0  0
   -5.1657   -2.6516    1.2489 H   0  0  0  0  0  0  0  0  0  0  0  0
   -5.2415   -3.6481    2.7054 H   0  0  0  0  0  0  0  0  0  0  0  0
   -4.0028   -0.8408    2.6559 H   0  0  0  0  0  0  0  0  0  0  0  0
   -4.2351   -1.8535    4.0563 H   0  0  0  0  0  0  0  0  0  0  0  0
   -5.9024   -0.2214    4.1672 H   0  0  0  0  0  0  0  0  0  0  0  0
   -6.4857   -2.6023    4.7088 H   0  0  0  0  0  0  0  0  0  0  0  0
   -7.8478   -1.5280    4.4717 H   0  0  0  0  0  0  0  0  0  0  0  0
   -7.3934   -2.6806    3.1887 H   0  0  0  0  0  0  0  0  0  0  0  0
   -6.5164   -0.7828    1.2452 H   0  0  0  0  0  0  0  0  0  0  0  0
   -8.2339    0.9128    3.0764 H   0  0  0  0  0  0  0  0  0  0  0  0
   -7.8133    1.6431    0.5585 H   0  0  0  0  0  0  0  0  0  0  0  0
   -9.3107    1.8088    1.4043 H   0  0  0  0  0  0  0  0  0  0  0  0
   -7.5174   -1.7424   -0.2645 H   0  0  0  0  0  0  0  0  0  0  0  0
   -8.9470   -2.2089    0.6967 H   0  0  0  0  0  0  0  0  0  0  0  0
   -9.8607   -3.5106   -1.0223 H   0  0  0  0  0  0  0  0  0  0  0  0
   -8.1401   -3.7743   -1.3541 H   0  0  0  0  0  0  0  0  0  0  0  0
   -9.6305   -2.8021   -3.3634 H   0  0  0  0  0  0  0  0  0  0  0  0
   -8.1040   -2.0052   -2.9975 H   0  0  0  0  0  0  0  0  0  0  0  0
   -9.4020   -0.1306   -2.7588 H   0  0  0  0  0  0  0  0  0  0  0  0
  -11.7040   -0.7204   -1.1585 H   0  0  0  0  0  0  0  0  0  0  0  0
  -11.1187    0.9306   -3.2498 H   0  0  0  0  0  0  0  0  0  0  0  0
  -12.8891   -1.1232   -4.6567 H   0  0  0  0  0  0  0  0  0  0  0  0
  -12.2781    0.4026   -5.2833 H   0  0  0  0  0  0  0  0  0  0  0  0
  -11.1494   -0.9195   -4.9509 H   0  0  0  0  0  0  0  0  0  0  0  0
  -11.9388    1.5985   -1.1248 H   0  0  0  0  0  0  0  0  0  0  0  0
  -13.4250    2.6864    0.0991 H   0  0  0  0  0  0  0  0  0  0  0  0
  -15.7398    1.9488    0.3631 H   0  0  0  0  0  0  0  0  0  0  0  0
  -14.7155    0.5244    0.1562 H   0  0  0  0  0  0  0  0  0  0  0  0
  -15.7094    1.0981   -1.1888 H   0  0  0  0  0  0  0  0  0  0  0  0
  -14.8278    3.2009   -2.6016 H   0  0  0  0  0  0  0  0  0  0  0  0
  -17.0559    3.8591   -2.1675 H   0  0  0  0  0  0  0  0  0  0  0  0
  -18.6683    5.3244   -1.0125 H   0  0  0  0  0  0  0  0  0  0  0  0
  -17.9282    6.7561    0.8739 H   0  0  0  0  0  0  0  0  0  0  0  0
  -15.5524    6.7264    1.5930 H   0  0  0  0  0  0  0  0  0  0  0  0
  -13.9224    5.2752    0.4372 H   0  0  0  0  0  0  0  0  0  0  0  0
  -12.6333    3.6916   -2.4445 H   0  0  0  0  0  0  0  0  0  0  0  0
  -13.8870   -1.8797   -2.6077 H   0  0  0  0  0  0  0  0  0  0  0  0
  -13.4278   -3.5508   -2.2529 H   0  0  0  0  0  0  0  0  0  0  0  0
  -13.2884   -2.3239   -0.9781 H   0  0  0  0  0  0  0  0  0  0  0  0
  -10.8461   -1.4230    3.1692 H   0  0  0  0  0  0  0  0  0  0  0  0
  -10.1213   -0.0389    4.0078 H   0  0  0  0  0  0  0  0  0  0  0  0
  -10.8369    0.1624    2.3757 H   0  0  0  0  0  0  0  0  0  0  0  0
   -6.2845    1.8499    3.8181 H   0  0  0  0  0  0  0  0  0  0  0  0
   -5.0348    2.7740    2.9824 H   0  0  0  0  0  0  0  0  0  0  0  0
   -6.7221    2.8753    2.4233 H   0  0  0  0  0  0  0  0  0  0  0  0
   -4.8757   -0.7331    0.1260 H   0  0  0  0  0  0  0  0  0  0  0  0
   -4.2348   -0.2731   -2.1852 H   0  0  0  0  0  0  0  0  0  0  0  0
   -6.2716    0.8097   -3.0087 H   0  0  0  0  0  0  0  0  0  0  0  0
   -6.6084    1.4820   -1.4091 H   0  0  0  0  0  0  0  0  0  0  0  0
   -6.6302   -0.2766   -1.6719 H   0  0  0  0  0  0  0  0  0  0  0  0
   -2.8541    1.7947   -1.8765 H   0  0  0  0  0  0  0  0  0  0  0  0
   -4.3493    2.7336   -1.6596 H   0  0  0  0  0  0  0  0  0  0  0  0
   -4.0295    1.9092   -3.1822 H   0  0  0  0  0  0  0  0  0  0  0  0
   -2.4911    0.9280    0.4156 H   0  0  0  0  0  0  0  0  0  0  0  0
   -0.3826   -0.6464   -1.0270 H   0  0  0  0  0  0  0  0  0  0  0  0
   -0.8968    0.2191    1.7882 H   0  0  0  0  0  0  0  0  0  0  0  0
    1.5381    0.5107    2.3016 H   0  0  0  0  0  0  0  0  0  0  0  0
    1.9423   -0.5560    0.9532 H   0  0  0  0  0  0  0  0  0  0  0  0
    1.0330   -1.1747    2.3495 H   0  0  0  0  0  0  0  0  0  0  0  0
   -0.7824    1.7513   -0.2921 H   0  0  0  0  0  0  0  0  0  0  0  0
    0.2821    2.2100    1.0380 H   0  0  0  0  0  0  0  0  0  0  0  0
    0.9365    1.3784   -0.3815 H   0  0  0  0  0  0  0  0  0  0  0  0
   -1.0185   -2.5203    2.0965 H   0  0  0  0  0  0  0  0  0  0  0  0
    0.0533   -3.8611    1.6340 H   0  0  0  0  0  0  0  0  0  0  0  0
   -1.5385   -3.7152    0.8699 H   0  0  0  0  0  0  0  0  0  0  0  0
    2.1679   -2.0619   -3.4238 H   0  0  0  0  0  0  0  0  0  0  0  0
    2.1831   -3.6300   -2.6341 H   0  0  0  0  0  0  0  0  0  0  0  0
    3.1463   -0.1126   -1.5562 H   0  0  0  0  0  0  0  0  0  0  0  0
    5.3246    0.4673   -0.5995 H   0  0  0  0  0  0  0  0  0  0  0  0
    6.6315   -3.6173   -1.1409 H   0  0  0  0  0  0  0  0  0  0  0  0
    4.4563   -4.1862   -2.0724 H   0  0  0  0  0  0  0  0  0  0  0  0
    7.4013   -0.1640    0.1161 H   0  0  0  0  0  0  0  0  0  0  0  0
    9.3330   -0.1032    0.8691 H   0  0  0  0  0  0  0  0  0  0  0  0
   10.5634   -1.3192    2.6472 H   0  0  0  0  0  0  0  0  0  0  0  0
    8.8207   -1.5181    2.6477 H   0  0  0  0  0  0  0  0  0  0  0  0
    8.9926   -3.7975    1.7690 H   0  0  0  0  0  0  0  0  0  0  0  0
    9.8530   -3.5538    3.2732 H   0  0  0  0  0  0  0  0  0  0  0  0
   11.2870   -4.9217    2.0247 H   0  0  0  0  0  0  0  0  0  0  0  0
   12.0346   -3.3268    1.9054 H   0  0  0  0  0  0  0  0  0  0  0  0
   10.1848   -4.1573   -0.2380 H   0  0  0  0  0  0  0  0  0  0  0  0
   12.5717   -5.2215   -2.3391 H   0  0  0  0  0  0  0  0  0  0  0  0
   11.1128   -4.3160   -2.2277 H   0  0  0  0  0  0  0  0  0  0  0  0
   11.3608   -2.0143   -0.1646 H   0  0  0  0  0  0  0  0  0  0  0  0
   13.0953   -1.1110   -1.2736 H   0  0  0  0  0  0  0  0  0  0  0  0
   11.6712    0.6689   -3.3520 H   0  0  0  0  0  0  0  0  0  0  0  0
   13.2564   -0.3197   -5.0018 H   0  0  0  0  0  0  0  0  0  0  0  0
   14.1191   -1.1464   -3.6917 H   0  0  0  0  0  0  0  0  0  0  0  0
   14.1126    0.6247   -3.7832 H   0  0  0  0  0  0  0  0  0  0  0  0
   11.8719   -2.3791   -3.1830 H   0  0  0  0  0  0  0  0  0  0  0  0
   10.4032   -1.4230   -2.9063 H   0  0  0  0  0  0  0  0  0  0  0  0
   11.1375   -1.4639   -4.5085 H   0  0  0  0  0  0  0  0  0  0  0  0
   12.9520    1.8718   -1.4397 H   0  0  0  0  0  0  0  0  0  0  0  0
   14.1772    2.9890    0.3243 H   0  0  0  0  0  0  0  0  0  0  0  0
   15.3749    2.6410   -0.9355 H   0  0  0  0  0  0  0  0  0  0  0  0
   16.7395    1.3836    0.8616 H   0  0  0  0  0  0  0  0  0  0  0  0
   16.6837    3.1402    0.9191 H   0  0  0  0  0  0  0  0  0  0  0  0
   14.9925    3.0987    2.7155 H   0  0  0  0  0  0  0  0  0  0  0  0
   14.8397    1.3574    2.5720 H   0  0  0  0  0  0  0  0  0  0  0  0
   17.2988    1.1391    3.2386 H   0  0  0  0  0  0  0  0  0  0  0  0
   16.1387    1.6322    4.4620 H   0  0  0  0  0  0  0  0  0  0  0  0
   18.0044    3.0033    4.8325 H   0  0  0  0  0  0  0  0  0  0  0  0
   16.7896    4.0557    4.0981 H   0  0  0  0  0  0  0  0  0  0  0  0
   19.8645    5.5236    0.6628 H   0  0  0  0  0  0  0  0  0  0  0  0
   21.2759    3.3205    1.2504 H   0  0  0  0  0  0  0  0  0  0  0  0
  1  2  1  0
  2  3  1  0
  3  4  1  0
  3  5  1  0
  5  6  1  0
  6  7  1  0
  7  8  1  0
  8  9  2  0
  8 10  1  0
 10 11  1  0
 11 12  1  0
 12 13  1  0
 13 14  1  0
 14 15  1  0
 15 16  1  0
 16 17  1  0
 16 18  1  0
 18 19  2  0
 18 20  1  0
 20 21  1  0
 21 22  1  0
 21 23  1  0
 23 24  1  0
 24 25  2  0
 25 26  1  0
 26 27  2  0
 27 28  1  0
 28 29  2  0
 23 30  1  0
 15 31  1  0
 31 32  1  0
  6 33  1  0
 33 34  1  0
  5 35  1  0
 35 36  1  0
 35 37  1  0
 37 38  2  0
 37 39  1  0
 39 40  1  0
 40 41  1  0
 40 42  1  0
 39 43  1  0
 43 44  1  0
 44 45  2  0
 44 46  1  0
 46 47  1  0
 47 48  1  0
 47 49  1  0
 46 50  1  0
 50 51  1  0
 50 52  1  0
 52 53  2  0
 52 54  1  0
 54 55  1  0
 55 56  1  0
 56 57  1  0
 57 58  2  0
 58 59  1  0
 59 60  2  0
 60 61  1  0
 59 62  1  0
 62 63  1  0
 63 64  2  0
 63 65  1  0
 65 66  1  0
 66 67  1  0
 67 68  1  0
 68 69  1  0
 69 70  1  0
 70 71  2  0
 70 72  1  0
 65 73  1  0
 73 74  1  0
 74 75  2  0
 74 76  1  0
 76 77  1  0
 77 78  1  0
 77 79  1  0
 76 80  1  0
 80 81  1  0
 81 82  2  0
 81 83  1  0
 83 84  1  0
 84 85  1  0
 85 86  1  0
 86 87  1  0
 87 88  1  0
 88 89  1  0
 89 90  2  0
 89 91  1  0
 91 92  2  0
 92 93  1  0
 93 94  2  0
 14 10  1  0
 29 24  1  0
 61 56  2  0
 93 88  1  0
  1 95  1  0
  1 96  1  0
  1 97  1  0
  2 98  1  0
  2 99  1  0
  3100  1  1
  4101  1  0
  4102  1  0
  4103  1  0
  5104  1  6
  6105  1  1
  7106  1  0
  7107  1  0
 11108  1  0
 11109  1  0
 12110  1  0
 12111  1  0
 13112  1  0
 13113  1  0
 14114  1  6
 15115  1  1
 16116  1  6
 17117  1  0
 17118  1  0
 17119  1  0
 20120  1  0
 21121  1  1
 22122  1  0
 22123  1  0
 22124  1  0
 23125  1  6
 25126  1  0
 26127  1  0
 27128  1  0
 28129  1  0
 29130  1  0
 30131  1  0
 32132  1  0
 32133  1  0
 32134  1  0
 34135  1  0
 34136  1  0
 34137  1  0
 36138  1  0
 36139  1  0
 36140  1  0
 39141  1  1
 40142  1  0
 41143  1  0
 41144  1  0
 41145  1  0
 42146  1  0
 42147  1  0
 42148  1  0
 43149  1  0
 46150  1  6
 47151  1  0
 48152  1  0
 48153  1  0
 48154  1  0
 49155  1  0
 49156  1  0
 49157  1  0
 51158  1  0
 51159  1  0
 51160  1  0
 55161  1  0
 55162  1  0
 57163  1  0
 58164  1  0
 60165  1  0
 61166  1  0
 62167  1  0
 65168  1  1
 66169  1  0
 66170  1  0
 67171  1  0
 67172  1  0
 68173  1  0
 68174  1  0
 69175  1  0
 72176  1  0
 72177  1  0
 73178  1  0
 76179  1  1
 77180  1  0
 78181  1  0
 78182  1  0
 78183  1  0
 79184  1  0
 79185  1  0
 79186  1  0
 80187  1  0
 83188  1  0
 83189  1  0
 84190  1  0
 84191  1  0
 85192  1  0
 85193  1  0
 86194  1  0
 86195  1  0
 87196  1  0
 87197  1  0
 91198  1  0
 92199  1  0
M  END
$$$$

     RDKit          3D

199202  0  0  0  0  0  0  0  0999 V2000
   -5.6257    1.1475    5.3988 C   0  0  0  0  0  0  0  0  0  0  0  0
   -5.5289    1.7806    4.0151 C   0  0  0  0  0  0  0  0  0  0  0  0
   -4.3930    1.1902    3.1500 C   0  0  2  0  0  0  0  0  0  0  0  0
   -4.1275    2.1114    1.9526 C   0  0  0  0  0  0  0  0  0  0  0  0
   -4.5570   -0.3370    2.8388 C   0  0  1  0  0  0  0  0  0  0  0  0
   -5.9825   -0.8905    2.4427 C   0  0  1  0  0  0  0  0  0  0  0  0
   -6.6049   -0.3808    1.1397 C   0  0  0  0  0  0  0  0  0  0  0  0
   -8.1244   -0.3275    1.1583 C   0  0  0  0  0  0  0  0  0  0  0  0
   -8.7815   -0.4966    2.1864 O   0  0  0  0  0  0  0  0  0  0  0  0
   -8.7315   -0.0235   -0.0540 N   0  0  0  0  0  0  0  0  0  0  0  0
   -8.0289    0.3612   -1.2725 C   0  0  0  0  0  0  0  0  0  0  0  0
   -8.9490    1.3751   -1.9171 C   0  0  0  0  0  0  0  0  0  0  0  0
  -10.3314    0.8290   -1.5835 C   0  0  0  0  0  0  0  0  0  0  0  0
  -10.1857    0.2613   -0.1569 C   0  0  1  0  0  0  0  0  0  0  0  0
  -11.0896   -0.9738    0.1829 C   0  0  1  0  0  0  0  0  0  0  0  0
  -12.4455   -0.6778    0.8690 C   0  0  1  0  0  0  0  0  0  0  0  0
  -12.2962   -0.0026    2.2323 C   0  0  0  0  0  0  0  0  0  0  0  0
  -13.4326    0.1275    0.0284 C   0  0  0  0  0  0  0  0  0  0  0  0
  -13.1126    0.9827   -0.7886 O   0  0  0  0  0  0  0  0  0  0  0  0
  -14.7558   -0.1395    0.3197 N   0  0  0  0  0  0  0  0  0  0  0  0
  -15.8573    0.6233   -0.2854 C   0  0  2  0  0  0  0  0  0  0  0  0
  -16.0760    1.9239    0.4927 C   0  0  0  0  0  0  0  0  0  0  0  0
  -17.1452   -0.2491   -0.3413 C   0  0  1  0  0  0  0  0  0  0  0  0
  -18.3326    0.3846   -1.0380 C   0  0  0  0  0  0  0  0  0  0  0  0
  -19.5835    0.4069   -0.4028 C   0  0  0  0  0  0  0  0  0  0  0  0
  -20.6852    1.0051   -1.0172 C   0  0  0  0  0  0  0  0  0  0  0  0
  -20.5521    1.5881   -2.2771 C   0  0  0  0  0  0  0  0  0  0  0  0
  -19.3229    1.5523   -2.9297 C   0  0  0  0  0  0  0  0  0  0  0  0
  -18.2224    0.9451   -2.3211 C   0  0  0  0  0  0  0  0  0  0  0  0
  -16.8791   -1.5017   -0.9848 O   0  0  0  0  0  0  0  0  0  0  0  0
  -11.3756   -1.7997   -0.9639 O   0  0  0  0  0  0  0  0  0  0  0  0
  -10.4024   -2.8130   -1.1823 C   0  0  0  0  0  0  0  0  0  0  0  0
   -5.9096   -2.3321    2.3326 O   0  0  0  0  0  0  0  0  0  0  0  0
   -6.2102   -2.9988    3.5510 C   0  0  0  0  0  0  0  0  0  0  0  0
   -3.3912   -0.9209    2.1022 N   0  0  0  0  0  0  0  0  0  0  0  0
   -2.2906   -1.3602    2.9540 C   0  0  0  0  0  0  0  0  0  0  0  0
   -3.2950   -0.8363    0.7150 C   0  0  0  0  0  0  0  0  0  0  0  0
   -4.1064   -0.1880    0.0425 O   0  0  0  0  0  0  0  0  0  0  0  0
   -2.1949   -1.6426   -0.0351 C   0  0  1  0  0  0  0  0  0  0  0  0
   -2.5946   -3.1211   -0.2909 C   0  0  0  0  0  0  0  0  0  0  0  0
   -4.0262   -3.2903   -0.8151 C   0  0  0  0  0  0  0  0  0  0  0  0
   -2.3968   -4.0102    0.9388 C   0  0  0  0  0  0  0  0  0  0  0  0
   -1.9458   -0.9732   -1.3226 N   0  0  0  0  0  0  0  0  0  0  0  0
   -1.2225    0.2065   -1.3611 C   0  0  0  0  0  0  0  0  0  0  0  0
   -0.6996    0.6630   -0.3454 O   0  0  0  0  0  0  0  0  0  0  0  0
   -1.0189    0.8364   -2.7738 C   0  0  1  0  0  0  0  0  0  0  0  0
   -2.2341    0.9223   -3.7499 C   0  0  0  0  0  0  0  0  0  0  0  0
   -2.4184   -0.3546   -4.5838 C   0  0  0  0  0  0  0  0  0  0  0  0
   -3.5724    1.3254   -3.1197 C   0  0  0  0  0  0  0  0  0  0  0  0
   -0.3512    2.1620   -2.6701 N   0  0  0  0  0  0  0  0  0  0  0  0
   -1.0816    3.2855   -2.1097 C   0  0  0  0  0  0  0  0  0  0  0  0
    0.7964    2.4585   -3.3888 C   0  0  0  0  0  0  0  0  0  0  0  0
    1.0557    3.5746   -3.8149 O   0  0  0  0  0  0  0  0  0  0  0  0
    1.5872    1.3725   -3.5735 O   0  0  0  0  0  0  0  0  0  0  0  0
    2.8563    1.6098   -4.1983 C   0  0  0  0  0  0  0  0  0  0  0  0
    4.0009    1.2653   -3.2679 C   0  0  0  0  0  0  0  0  0  0  0  0
    5.2173    0.8326   -3.8057 C   0  0  0  0  0  0  0  0  0  0  0  0
    6.2958    0.5299   -2.9688 C   0  0  0  0  0  0  0  0  0  0  0  0
    6.1815    0.6566   -1.5829 C   0  0  0  0  0  0  0  0  0  0  0  0
    4.9848    1.1268   -1.0409 C   0  0  0  0  0  0  0  0  0  0  0  0
    3.9009    1.4237   -1.8796 C   0  0  0  0  0  0  0  0  0  0  0  0
    7.2936    0.2802   -0.8153 N   0  0  0  0  0  0  0  0  0  0  0  0
    7.5291    0.5017    0.5261 C   0  0  0  0  0  0  0  0  0  0  0  0
    6.8451    1.1964    1.2734 O   0  0  0  0  0  0  0  0  0  0  0  0
    8.7789   -0.2495    1.0654 C   0  0  1  0  0  0  0  0  0  0  0  0
    8.5663   -1.7747    0.9664 C   0  0  0  0  0  0  0  0  0  0  0  0
    9.4648   -2.5949    1.9029 C   0  0  0  0  0  0  0  0  0  0  0  0
   10.8442   -2.8890    1.3208 C   0  0  0  0  0  0  0  0  0  0  0  0
   11.6783   -3.5568    2.2959 N   0  0  0  0  0  0  0  0  0  0  0  0
   11.9416   -4.8916    2.2575 C   0  0  0  0  0  0  0  0  0  0  0  0
   11.5449   -5.6800    1.4095 O   0  0  0  0  0  0  0  0  0  0  0  0
   12.7045   -5.2955    3.3055 N   0  0  0  0  0  0  0  0  0  0  0  0
   10.0409    0.2462    0.5089 N   0  0  0  0  0  0  0  0  0  0  0  0
   10.4447    0.1020   -0.8007 C   0  0  0  0  0  0  0  0  0  0  0  0
    9.6975   -0.3974   -1.6407 O   0  0  0  0  0  0  0  0  0  0  0  0
   11.9177    0.5079   -1.1055 C   0  0  1  0  0  0  0  0  0  0  0  0
   12.0761    1.1886   -2.4927 C   0  0  0  0  0  0  0  0  0  0  0  0
   13.4944    1.7462   -2.6968 C   0  0  0  0  0  0  0  0  0  0  0  0
   11.7855    0.2324   -3.6576 C   0  0  0  0  0  0  0  0  0  0  0  0
   12.4600    1.3681   -0.0377 N   0  0  0  0  0  0  0  0  0  0  0  0
   13.1787    0.8523    1.0152 C   0  0  0  0  0  0  0  0  0  0  0  0
   13.2729   -0.3576    1.2118 O   0  0  0  0  0  0  0  0  0  0  0  0
   13.8225    1.9053    1.9002 C   0  0  0  0  0  0  0  0  0  0  0  0
   14.5999    1.3172    3.0859 C   0  0  0  0  0  0  0  0  0  0  0  0
   15.8137    0.4535    2.7142 C   0  0  0  0  0  0  0  0  0  0  0  0
   16.9590    1.2332    2.0664 C   0  0  0  0  0  0  0  0  0  0  0  0
   17.9554    0.2788    1.4086 C   0  0  0  0  0  0  0  0  0  0  0  0
   19.1173    0.9724    0.8881 N   0  0  0  0  0  0  0  0  0  0  0  0
   19.1043    1.8203   -0.1711 C   0  0  0  0  0  0  0  0  0  0  0  0
   18.1665    2.1640   -0.8691 O   0  0  0  0  0  0  0  0  0  0  0  0
   20.4844    2.2702   -0.3783 C   0  0  0  0  0  0  0  0  0  0  0  0
   21.2549    1.6350    0.4999 C   0  0  0  0  0  0  0  0  0  0  0  0
   20.3832    0.8094    1.3446 C   0  0  0  0  0  0  0  0  0  0  0  0
   20.7815    0.1401    2.2811 O   0  0  0  0  0  0  0  0  0  0  0  0
   -6.3294    1.7094    6.0230 H   0  0  0  0  0  0  0  0  0  0  0  0
   -4.6529    1.1603    5.9046 H   0  0  0  0  0  0  0  0  0  0  0  0
   -5.9792    0.1140    5.3549 H   0  0  0  0  0  0  0  0  0  0  0  0
   -6.4919    1.6973    3.4984 H   0  0  0  0  0  0  0  0  0  0  0  0
   -5.3522    2.8529    4.1588 H   0  0  0  0  0  0  0  0  0  0  0  0
   -3.4788    1.2774    3.7562 H   0  0  0  0  0  0  0  0  0  0  0  0
   -3.9325    3.1342    2.3008 H   0  0  0  0  0  0  0  0  0  0  0  0
   -4.9743    2.1697    1.2666 H   0  0  0  0  0  0  0  0  0  0  0  0
   -3.2340    1.8071    1.4024 H   0  0  0  0  0  0  0  0  0  0  0  0
   -4.4341   -0.7927    3.8343 H   0  0  0  0  0  0  0  0  0  0  0  0
   -6.6603   -0.6443    3.2654 H   0  0  0  0  0  0  0  0  0  0  0  0
   -6.3199   -1.0307    0.3062 H   0  0  0  0  0  0  0  0  0  0  0  0
   -6.2908    0.6435    0.9546 H   0  0  0  0  0  0  0  0  0  0  0  0
   -7.0343    0.7750   -1.0925 H   0  0  0  0  0  0  0  0  0  0  0  0
   -7.9362   -0.5356   -1.8883 H   0  0  0  0  0  0  0  0  0  0  0  0
   -8.8142    2.3575   -1.4486 H   0  0  0  0  0  0  0  0  0  0  0  0
   -8.7783    1.4773   -2.9929 H   0  0  0  0  0  0  0  0  0  0  0  0
  -10.6007    0.0612   -2.3151 H   0  0  0  0  0  0  0  0  0  0  0  0
  -11.0660    1.6331   -1.6491 H   0  0  0  0  0  0  0  0  0  0  0  0
  -10.3647    1.0621    0.5725 H   0  0  0  0  0  0  0  0  0  0  0  0
  -10.5534   -1.6006    0.9047 H   0  0  0  0  0  0  0  0  0  0  0  0
  -12.9195   -1.6567    1.0358 H   0  0  0  0  0  0  0  0  0  0  0  0
  -11.5906   -0.5481    2.8656 H   0  0  0  0  0  0  0  0  0  0  0  0
  -13.2574    0.0282    2.7555 H   0  0  0  0  0  0  0  0  0  0  0  0
  -11.9528    1.0322    2.1388 H   0  0  0  0  0  0  0  0  0  0  0  0
  -14.9782   -0.7930    1.0584 H   0  0  0  0  0  0  0  0  0  0  0  0
  -15.5426    0.8798   -1.3048 H   0  0  0  0  0  0  0  0  0  0  0  0
  -15.1603    2.5304    0.5086 H   0  0  0  0  0  0  0  0  0  0  0  0
  -16.8664    2.5348    0.0419 H   0  0  0  0  0  0  0  0  0  0  0  0
  -16.3518    1.7138    1.5328 H   0  0  0  0  0  0  0  0  0  0  0  0
  -17.4288   -0.5018    0.6898 H   0  0  0  0  0  0  0  0  0  0  0  0
  -19.7126   -0.0454    0.5792 H   0  0  0  0  0  0  0  0  0  0  0  0
  -21.6484    1.0172   -0.5151 H   0  0  0  0  0  0  0  0  0  0  0  0
  -21.4100    2.0578   -2.7542 H   0  0  0  0  0  0  0  0  0  0  0  0
  -19.2193    1.9954   -3.9181 H   0  0  0  0  0  0  0  0  0  0  0  0
  -17.2779    0.9163   -2.8582 H   0  0  0  0  0  0  0  0  0  0  0  0
  -16.0287   -1.4153   -1.4505 H   0  0  0  0  0  0  0  0  0  0  0  0
  -10.3415   -3.4813   -0.3183 H   0  0  0  0  0  0  0  0  0  0  0  0
   -9.4236   -2.3814   -1.3986 H   0  0  0  0  0  0  0  0  0  0  0  0
  -10.7183   -3.4001   -2.0478 H   0  0  0  0  0  0  0  0  0  0  0  0
   -6.1290   -4.0762    3.3844 H   0  0  0  0  0  0  0  0  0  0  0  0
   -5.5058   -2.7161    4.3371 H   0  0  0  0  0  0  0  0  0  0  0  0
   -7.2349   -2.7714    3.8682 H   0  0  0  0  0  0  0  0  0  0  0  0
   -1.9967   -0.5333    3.6076 H   0  0  0  0  0  0  0  0  0  0  0  0
   -2.6410   -2.1955    3.5694 H   0  0  0  0  0  0  0  0  0  0  0  0
   -1.4054   -1.6739    2.4100 H   0  0  0  0  0  0  0  0  0  0  0  0
   -1.2413   -1.5973    0.4915 H   0  0  0  0  0  0  0  0  0  0  0  0
   -1.9219   -3.5108   -1.0659 H   0  0  0  0  0  0  0  0  0  0  0  0
   -4.2132   -2.6627   -1.6915 H   0  0  0  0  0  0  0  0  0  0  0  0
   -4.2022   -4.3316   -1.1076 H   0  0  0  0  0  0  0  0  0  0  0  0
   -4.7665   -3.0387   -0.0496 H   0  0  0  0  0  0  0  0  0  0  0  0
   -3.1157   -3.7774    1.7297 H   0  0  0  0  0  0  0  0  0  0  0  0
   -1.3837   -3.9055    1.3439 H   0  0  0  0  0  0  0  0  0  0  0  0
   -2.5359   -5.0630    0.6737 H   0  0  0  0  0  0  0  0  0  0  0  0
   -2.7116   -1.0369   -1.9758 H   0  0  0  0  0  0  0  0  0  0  0  0
   -0.2985    0.1553   -3.2464 H   0  0  0  0  0  0  0  0  0  0  0  0
   -1.9990    1.7018   -4.4905 H   0  0  0  0  0  0  0  0  0  0  0  0
   -3.1607   -0.1865   -5.3728 H   0  0  0  0  0  0  0  0  0  0  0  0
   -1.4825   -0.6428   -5.0737 H   0  0  0  0  0  0  0  0  0  0  0  0
   -2.7722   -1.2000   -3.9877 H   0  0  0  0  0  0  0  0  0  0  0  0
   -4.3437    1.4215   -3.8935 H   0  0  0  0  0  0  0  0  0  0  0  0
   -3.9355    0.5859   -2.4032 H   0  0  0  0  0  0  0  0  0  0  0  0
   -3.5148    2.2911   -2.6107 H   0  0  0  0  0  0  0  0  0  0  0  0
   -1.7326    3.7065   -2.8802 H   0  0  0  0  0  0  0  0  0  0  0  0
   -1.6705    2.9654   -1.2460 H   0  0  0  0  0  0  0  0  0  0  0  0
   -0.3829    4.0601   -1.7844 H   0  0  0  0  0  0  0  0  0  0  0  0
    2.9884    2.6399   -4.5505 H   0  0  0  0  0  0  0  0  0  0  0  0
    2.8894    0.9495   -5.0725 H   0  0  0  0  0  0  0  0  0  0  0  0
    5.3411    0.7355   -4.8815 H   0  0  0  0  0  0  0  0  0  0  0  0
    7.2218    0.1807   -3.4179 H   0  0  0  0  0  0  0  0  0  0  0  0
    4.8416    1.2145    0.0285 H   0  0  0  0  0  0  0  0  0  0  0  0
    2.9775    1.7824   -1.4284 H   0  0  0  0  0  0  0  0  0  0  0  0
    8.0696   -0.1377   -1.3313 H   0  0  0  0  0  0  0  0  0  0  0  0
    8.8262    0.0144    2.1323 H   0  0  0  0  0  0  0  0  0  0  0  0
    8.6684   -2.1392   -0.0622 H   0  0  0  0  0  0  0  0  0  0  0  0
    7.5260   -1.9830    1.2560 H   0  0  0  0  0  0  0  0  0  0  0  0
    8.9702   -3.5548    2.1095 H   0  0  0  0  0  0  0  0  0  0  0  0
    9.5552   -2.0883    2.8749 H   0  0  0  0  0  0  0  0  0  0  0  0
   11.3617   -1.9707    1.0478 H   0  0  0  0  0  0  0  0  0  0  0  0
   10.7542   -3.5104    0.4220 H   0  0  0  0  0  0  0  0  0  0  0  0
   12.0042   -3.0292    3.0915 H   0  0  0  0  0  0  0  0  0  0  0  0
   12.9787   -6.2664    3.2320 H   0  0  0  0  0  0  0  0  0  0  0  0
   13.4431   -4.6702    3.5919 H   0  0  0  0  0  0  0  0  0  0  0  0
   10.7791    0.4402    1.1708 H   0  0  0  0  0  0  0  0  0  0  0  0
   12.4904   -0.4281   -1.1022 H   0  0  0  0  0  0  0  0  0  0  0  0
   11.3725    2.0277   -2.5607 H   0  0  0  0  0  0  0  0  0  0  0  0
   13.6070    2.1688   -3.7034 H   0  0  0  0  0  0  0  0  0  0  0  0
   14.2487    0.9575   -2.5765 H   0  0  0  0  0  0  0  0  0  0  0  0
   13.7188    2.5501   -1.9883 H   0  0  0  0  0  0  0  0  0  0  0  0
   12.3591   -0.6968   -3.5641 H   0  0  0  0  0  0  0  0  0  0  0  0
   12.0470    0.6918   -4.6183 H   0  0  0  0  0  0  0  0  0  0  0  0
   10.7258   -0.0236   -3.7243 H   0  0  0  0  0  0  0  0  0  0  0  0
   12.2986    2.3668   -0.0976 H   0  0  0  0  0  0  0  0  0  0  0  0
   14.4666    2.5395    1.2849 H   0  0  0  0  0  0  0  0  0  0  0  0
   13.0190    2.5383    2.2924 H   0  0  0  0  0  0  0  0  0  0  0  0
   14.9344    2.1381    3.7325 H   0  0  0  0  0  0  0  0  0  0  0  0
   13.9159    0.7010    3.6849 H   0  0  0  0  0  0  0  0  0  0  0  0
   16.1951   -0.0183    3.6290 H   0  0  0  0  0  0  0  0  0  0  0  0
   15.5114   -0.3704    2.0633 H   0  0  0  0  0  0  0  0  0  0  0  0
   16.5793    1.9348    1.3161 H   0  0  0  0  0  0  0  0  0  0  0  0
   17.4652    1.8405    2.8276 H   0  0  0  0  0  0  0  0  0  0  0  0
   18.2832   -0.4801    2.1225 H   0  0  0  0  0  0  0  0  0  0  0  0
   17.4763   -0.2310    0.5642 H   0  0  0  0  0  0  0  0  0  0  0  0
   20.7748    2.9692   -1.1435 H   0  0  0  0  0  0  0  0  0  0  0  0
   22.3183    1.7090    0.6427 H   0  0  0  0  0  0  0  0  0  0  0  0
  1  2  1  0
  2  3  1  0
  3  4  1  0
  3  5  1  0
  5  6  1  0
  6  7  1  0
  7  8  1  0
  8  9  2  0
  8 10  1  0
 10 11  1  0
 11 12  1  0
 12 13  1  0
 13 14  1  0
 14 15  1  0
 15 16  1  0
 16 17  1  0
 16 18  1  0
 18 19  2  0
 18 20  1  0
 20 21  1  0
 21 22  1  0
 21 23  1  0
 23 24  1  0
 24 25  2  0
 25 26  1  0
 26 27  2  0
 27 28  1  0
 28 29  2  0
 23 30  1  0
 15 31  1  0
 31 32  1  0
  6 33  1  0
 33 34  1  0
  5 35  1  0
 35 36  1  0
 35 37  1  0
 37 38  2  0
 37 39  1  0
 39 40  1  0
 40 41  1  0
 40 42  1  0
 39 43  1  0
 43 44  1  0
 44 45  2  0
 44 46  1  0
 46 47  1  0
 47 48  1  0
 47 49  1  0
 46 50  1  0
 50 51  1  0
 50 52  1  0
 52 53  2  0
 52 54  1  0
 54 55  1  0
 55 56  1  0
 56 57  1  0
 57 58  2  0
 58 59  1  0
 59 60  2  0
 60 61  1  0
 59 62  1  0
 62 63  1  0
 63 64  2  0
 63 65  1  0
 65 66  1  0
 66 67  1  0
 67 68  1  0
 68 69  1  0
 69 70  1  0
 70 71  2  0
 70 72  1  0
 65 73  1  0
 73 74  1  0
 74 75  2  0
 74 76  1  0
 76 77  1  0
 77 78  1  0
 77 79  1  0
 76 80  1  0
 80 81  1  0
 81 82  2  0
 81 83  1  0
 83 84  1  0
 84 85  1  0
 85 86  1  0
 86 87  1  0
 87 88  1  0
 88 89  1  0
 89 90  2  0
 89 91  1  0
 91 92  2  0
 92 93  1  0
 93 94  2  0
 14 10  1  0
 29 24  1  0
 61 56  2  0
 93 88  1  0
  1 95  1  0
  1 96  1  0
  1 97  1  0
  2 98  1  0
  2 99  1  0
  3100  1  1
  4101  1  0
  4102  1  0
  4103  1  0
  5104  1  1
  6105  1  1
  7106  1  0
  7107  1  0
 11108  1  0
 11109  1  0
 12110  1  0
 12111  1  0
 13112  1  0
 13113  1  0
 14114  1  1
 15115  1  1
 16116  1  1
 17117  1  0
 17118  1  0
 17119  1  0
 20120  1  0
 21121  1  6
 22122  1  0
 22123  1  0
 22124  1  0
 23125  1  1
 25126  1  0
 26127  1  0
 27128  1  0
 28129  1  0
 29130  1  0
 30131  1  0
 32132  1  0
 32133  1  0
 32134  1  0
 34135  1  0
 34136  1  0
 34137  1  0
 36138  1  0
 36139  1  0
 36140  1  0
 39141  1  1
 40142  1  0
 41143  1  0
 41144  1  0
 41145  1  0
 42146  1  0
 42147  1  0
 42148  1  0
 43149  1  0
 46150  1  6
 47151  1  0
 48152  1  0
 48153  1  0
 48154  1  0
 49155  1  0
 49156  1  0
 49157  1  0
 51158  1  0
 51159  1  0
 51160  1  0
 55161  1  0
 55162  1  0
 57163  1  0
 58164  1  0
 60165  1  0
 61166  1  0
 62167  1  0
 65168  1  1
 66169  1  0
 66170  1  0
 67171  1  0
 67172  1  0
 68173  1  0
 68174  1  0
 69175  1  0
 72176  1  0
 72177  1  0
 73178  1  0
 76179  1  6
 77180  1  0
 78181  1  0
 78182  1  0
 78183  1  0
 79184  1  0
 79185  1  0
 79186  1  0
 80187  1  0
 83188  1  0
 83189  1  0
 84190  1  0
 84191  1  0
 85192  1  0
 85193  1  0
 86194  1  0
 86195  1  0
 87196  1  0
 87197  1  0
 91198  1  0
 92199  1  0
M  END
$$$$

     RDKit          3D

199202  0  0  0  0  0  0  0  0999 V2000
   -7.0038    3.0922   -1.9446 C   0  0  0  0  0  0  0  0  0  0  0  0
   -7.1869    1.8129   -2.7541 C   0  0  0  0  0  0  0  0  0  0  0  0
   -6.2174    0.6683   -2.3599 C   0  0  2  0  0  0  0  0  0  0  0  0
   -6.2184   -0.3648   -3.4943 C   0  0  0  0  0  0  0  0  0  0  0  0
   -6.4936    0.1195   -0.9143 C   0  0  1  0  0  0  0  0  0  0  0  0
   -7.2582   -1.2399   -0.7125 C   0  0  1  0  0  0  0  0  0  0  0  0
   -8.7215   -1.1719   -1.1523 C   0  0  0  0  0  0  0  0  0  0  0  0
   -9.5802   -0.3954   -0.1825 C   0  0  0  0  0  0  0  0  0  0  0  0
   -9.7634    0.8098   -0.3579 O   0  0  0  0  0  0  0  0  0  0  0  0
  -10.1258   -1.0730    0.8905 N   0  0  0  0  0  0  0  0  0  0  0  0
  -10.0199   -2.5006    1.1378 C   0  0  0  0  0  0  0  0  0  0  0  0
  -10.7367   -2.7014    2.4578 C   0  0  0  0  0  0  0  0  0  0  0  0
  -11.8656   -1.6824    2.3864 C   0  0  0  0  0  0  0  0  0  0  0  0
  -11.2587   -0.4910    1.6229 C   0  0  1  0  0  0  0  0  0  0  0  0
  -10.9175    0.7384    2.5153 C   0  0  1  0  0  0  0  0  0  0  0  0
  -12.1946    1.4188    3.0672 C   0  0  1  0  0  0  0  0  0  0  0  0
  -11.8659    2.7071    3.8276 C   0  0  0  0  0  0  0  0  0  0  0  0
  -13.1555    1.7626    1.9420 C   0  0  0  0  0  0  0  0  0  0  0  0
  -12.8309    2.4039    0.9456 O   0  0  0  0  0  0  0  0  0  0  0  0
  -14.4388    1.2848    2.1108 N   0  0  0  0  0  0  0  0  0  0  0  0
  -15.4452    1.4067    1.0415 C   0  0  2  0  0  0  0  0  0  0  0  0
  -16.8397    1.3639    1.6667 C   0  0  0  0  0  0  0  0  0  0  0  0
  -15.2538    0.2998   -0.0475 C   0  0  1  0  0  0  0  0  0  0  0  0
  -16.2203    0.3775   -1.2093 C   0  0  0  0  0  0  0  0  0  0  0  0
  -16.2707    1.5143   -2.0325 C   0  0  0  0  0  0  0  0  0  0  0  0
  -17.1518    1.5721   -3.1133 C   0  0  0  0  0  0  0  0  0  0  0  0
  -17.9880    0.4948   -3.3901 C   0  0  0  0  0  0  0  0  0  0  0  0
  -17.9412   -0.6455   -2.5901 C   0  0  0  0  0  0  0  0  0  0  0  0
  -17.0640   -0.7041   -1.5065 C   0  0  0  0  0  0  0  0  0  0  0  0
  -13.9402    0.3127   -0.6134 O   0  0  0  0  0  0  0  0  0  0  0  0
  -10.1449    0.3200    3.6618 O   0  0  0  0  0  0  0  0  0  0  0  0
   -8.7482    0.5243    3.4836 C   0  0  0  0  0  0  0  0  0  0  0  0
   -6.6594   -2.3196   -1.4364 O   0  0  0  0  0  0  0  0  0  0  0  0
   -6.5431   -3.5168   -0.6829 C   0  0  0  0  0  0  0  0  0  0  0  0
   -5.2544    0.1834   -0.0635 N   0  0  0  0  0  0  0  0  0  0  0  0
   -5.2144    1.2592    0.9210 C   0  0  0  0  0  0  0  0  0  0  0  0
   -4.1265   -0.5485   -0.4297 C   0  0  0  0  0  0  0  0  0  0  0  0
   -4.1356   -1.3751   -1.3490 O   0  0  0  0  0  0  0  0  0  0  0  0
   -2.7985   -0.3547    0.3521 C   0  0  1  0  0  0  0  0  0  0  0  0
   -2.7959   -1.1788    1.6602 C   0  0  0  0  0  0  0  0  0  0  0  0
   -2.6387   -2.6869    1.4380 C   0  0  0  0  0  0  0  0  0  0  0  0
   -1.7030   -0.6765    2.6024 C   0  0  0  0  0  0  0  0  0  0  0  0
   -1.7646   -0.7897   -0.5871 N   0  0  0  0  0  0  0  0  0  0  0  0
   -1.2634    0.1158   -1.5159 C   0  0  0  0  0  0  0  0  0  0  0  0
   -1.2024    1.3240   -1.2903 O   0  0  0  0  0  0  0  0  0  0  0  0
   -1.0100   -0.5284   -2.9087 C   0  0  1  0  0  0  0  0  0  0  0  0
   -0.2653    0.3095   -3.9742 C   0  0  0  0  0  0  0  0  0  0  0  0
    1.1294    0.7712   -3.5671 C   0  0  0  0  0  0  0  0  0  0  0  0
   -1.0998    1.5126   -4.4267 C   0  0  0  0  0  0  0  0  0  0  0  0
   -0.5671   -1.9432   -2.8338 N   0  0  0  0  0  0  0  0  0  0  0  0
   -1.2727   -2.8908   -3.6831 C   0  0  0  0  0  0  0  0  0  0  0  0
    0.5278   -2.3910   -2.1049 C   0  0  0  0  0  0  0  0  0  0  0  0
    0.9101   -3.5535   -2.1190 O   0  0  0  0  0  0  0  0  0  0  0  0
    1.0632   -1.4310   -1.3083 O   0  0  0  0  0  0  0  0  0  0  0  0
    1.8447   -1.9001   -0.1970 C   0  0  0  0  0  0  0  0  0  0  0  0
    3.2140   -1.2649   -0.1327 C   0  0  0  0  0  0  0  0  0  0  0  0
    4.2232   -1.8810    0.6245 C   0  0  0  0  0  0  0  0  0  0  0  0
    5.4980   -1.3140    0.7240 C   0  0  0  0  0  0  0  0  0  0  0  0
    5.7896   -0.1148    0.0759 C   0  0  0  0  0  0  0  0  0  0  0  0
    4.7759    0.5159   -0.6582 C   0  0  0  0  0  0  0  0  0  0  0  0
    3.4980   -0.0402   -0.7361 C   0  0  0  0  0  0  0  0  0  0  0  0
    7.0552    0.5053    0.0841 N   0  0  0  0  0  0  0  0  0  0  0  0
    8.2268    0.0288    0.6697 C   0  0  0  0  0  0  0  0  0  0  0  0
    8.3357   -0.9942    1.3344 O   0  0  0  0  0  0  0  0  0  0  0  0
    9.4396    0.9533    0.3759 C   0  0  1  0  0  0  0  0  0  0  0  0
    9.3364    2.3783    0.9489 C   0  0  0  0  0  0  0  0  0  0  0  0
    8.6318    2.5237    2.3058 C   0  0  0  0  0  0  0  0  0  0  0  0
    8.5553    3.9751    2.7909 C   0  0  0  0  0  0  0  0  0  0  0  0
    9.8584    4.5745    2.9691 N   0  0  0  0  0  0  0  0  0  0  0  0
   10.4135    5.3819    2.0208 C   0  0  0  0  0  0  0  0  0  0  0  0
    9.8778    5.7533    0.9883 O   0  0  0  0  0  0  0  0  0  0  0  0
   11.6768    5.7576    2.3394 N   0  0  0  0  0  0  0  0  0  0  0  0
   10.7141    0.2724    0.6046 N   0  0  0  0  0  0  0  0  0  0  0  0
   11.2970    0.0291    1.8262 C   0  0  0  0  0  0  0  0  0  0  0  0
   10.8559    0.4456    2.8909 O   0  0  0  0  0  0  0  0  0  0  0  0
   12.4831   -0.9666    1.7673 C   0  0  1  0  0  0  0  0  0  0  0  0
   11.9698   -2.4258    1.6761 C   0  0  0  0  0  0  0  0  0  0  0  0
   11.1601   -2.8202    2.9181 C   0  0  0  0  0  0  0  0  0  0  0  0
   13.1296   -3.4184    1.5105 C   0  0  0  0  0  0  0  0  0  0  0  0
   13.3297   -0.6400    0.6114 N   0  0  0  0  0  0  0  0  0  0  0  0
   14.3704    0.2576    0.7255 C   0  0  0  0  0  0  0  0  0  0  0  0
   14.6176    0.8722    1.7581 O   0  0  0  0  0  0  0  0  0  0  0  0
   15.1963    0.4179   -0.5341 C   0  0  0  0  0  0  0  0  0  0  0  0
   16.6757    0.1368   -0.2749 C   0  0  0  0  0  0  0  0  0  0  0  0
   16.9432   -1.3555   -0.0634 C   0  0  0  0  0  0  0  0  0  0  0  0
   18.4133   -1.6821    0.2342 C   0  0  0  0  0  0  0  0  0  0  0  0
   19.2662   -1.9641   -1.0082 C   0  0  0  0  0  0  0  0  0  0  0  0
   19.6227   -0.7814   -1.7606 N   0  0  0  0  0  0  0  0  0  0  0  0
   20.6081    0.0829   -1.4140 C   0  0  0  0  0  0  0  0  0  0  0  0
   21.3395    0.0640   -0.4417 O   0  0  0  0  0  0  0  0  0  0  0  0
   20.6733    1.1066   -2.4630 C   0  0  0  0  0  0  0  0  0  0  0  0
   19.7556    0.8049   -3.3824 C   0  0  0  0  0  0  0  0  0  0  0  0
   19.0705   -0.4154   -2.9446 C   0  0  0  0  0  0  0  0  0  0  0  0
   18.1728   -0.9507   -3.5719 O   0  0  0  0  0  0  0  0  0  0  0  0
   -5.9617    3.4266   -1.9761 H   0  0  0  0  0  0  0  0  0  0  0  0
   -7.6230    3.8891   -2.3687 H   0  0  0  0  0  0  0  0  0  0  0  0
   -7.2999    2.9666   -0.9008 H   0  0  0  0  0  0  0  0  0  0  0  0
   -8.2288    1.4791   -2.6780 H   0  0  0  0  0  0  0  0  0  0  0  0
   -7.0244    2.0697   -3.8081 H   0  0  0  0  0  0  0  0  0  0  0  0
   -5.2124    1.1180   -2.3654 H   0  0  0  0  0  0  0  0  0  0  0  0
   -5.9291    0.1124   -4.4382 H   0  0  0  0  0  0  0  0  0  0  0  0
   -5.4974   -1.1657   -3.3253 H   0  0  0  0  0  0  0  0  0  0  0  0
   -7.2042   -0.8136   -3.6517 H   0  0  0  0  0  0  0  0  0  0  0  0
   -7.1525    0.8474   -0.4334 H   0  0  0  0  0  0  0  0  0  0  0  0
   -7.2205   -1.4591    0.3628 H   0  0  0  0  0  0  0  0  0  0  0  0
   -8.8276   -0.7114   -2.1407 H   0  0  0  0  0  0  0  0  0  0  0  0
   -9.1376   -2.1767   -1.2859 H   0  0  0  0  0  0  0  0  0  0  0  0
  -10.5331   -3.0279    0.3257 H   0  0  0  0  0  0  0  0  0  0  0  0
   -8.9742   -2.8142    1.1774 H   0  0  0  0  0  0  0  0  0  0  0  0
  -10.0677   -2.4654    3.2936 H   0  0  0  0  0  0  0  0  0  0  0  0
  -11.0956   -3.7273    2.5877 H   0  0  0  0  0  0  0  0  0  0  0  0
  -12.2586   -1.4382    3.3752 H   0  0  0  0  0  0  0  0  0  0  0  0
  -12.6924   -2.0990    1.8012 H   0  0  0  0  0  0  0  0  0  0  0  0
  -11.9652   -0.1777    0.8527 H   0  0  0  0  0  0  0  0  0  0  0  0
  -10.3529    1.4807    1.9385 H   0  0  0  0  0  0  0  0  0  0  0  0
  -12.6829    0.7485    3.7825 H   0  0  0  0  0  0  0  0  0  0  0  0
  -11.2388    2.5025    4.7012 H   0  0  0  0  0  0  0  0  0  0  0  0
  -12.7824    3.1914    4.1817 H   0  0  0  0  0  0  0  0  0  0  0  0
  -11.3390    3.4255    3.1898 H   0  0  0  0  0  0  0  0  0  0  0  0
  -14.6208    0.6347    2.8636 H   0  0  0  0  0  0  0  0  0  0  0  0
  -15.2990    2.3925    0.5816 H   0  0  0  0  0  0  0  0  0  0  0  0
  -17.0284    0.3976    2.1456 H   0  0  0  0  0  0  0  0  0  0  0  0
  -16.9376    2.1350    2.4383 H   0  0  0  0  0  0  0  0  0  0  0  0
  -17.6217    1.5399    0.9230 H   0  0  0  0  0  0  0  0  0  0  0  0
  -15.3538   -0.6756    0.4437 H   0  0  0  0  0  0  0  0  0  0  0  0
  -15.6051    2.3555   -1.8478 H   0  0  0  0  0  0  0  0  0  0  0  0
  -17.1731    2.4559   -3.7480 H   0  0  0  0  0  0  0  0  0  0  0  0
  -18.6686    0.5384   -4.2366 H   0  0  0  0  0  0  0  0  0  0  0  0
  -18.5794   -1.4939   -2.8181 H   0  0  0  0  0  0  0  0  0  0  0  0
  -17.0322   -1.6074   -0.9031 H   0  0  0  0  0  0  0  0  0  0  0  0
  -13.5243    1.1739   -0.3927 H   0  0  0  0  0  0  0  0  0  0  0  0
   -8.5319    1.5869    3.3359 H   0  0  0  0  0  0  0  0  0  0  0  0
   -8.2387    0.1909    4.3902 H   0  0  0  0  0  0  0  0  0  0  0  0
   -8.3702   -0.0576    2.6404 H   0  0  0  0  0  0  0  0  0  0  0  0
   -5.9259   -3.3549    0.2069 H   0  0  0  0  0  0  0  0  0  0  0  0
   -7.5314   -3.8895   -0.3963 H   0  0  0  0  0  0  0  0  0  0  0  0
   -6.0573   -4.2695   -1.3080 H   0  0  0  0  0  0  0  0  0  0  0  0
   -5.1038    2.2119    0.3923 H   0  0  0  0  0  0  0  0  0  0  0  0
   -6.1526    1.2598    1.4869 H   0  0  0  0  0  0  0  0  0  0  0  0
   -4.4031    1.1494    1.6370 H   0  0  0  0  0  0  0  0  0  0  0  0
   -2.6539    0.7116    0.5513 H   0  0  0  0  0  0  0  0  0  0  0  0
   -3.7563   -1.0325    2.1665 H   0  0  0  0  0  0  0  0  0  0  0  0
   -2.7296   -3.2208    2.3887 H   0  0  0  0  0  0  0  0  0  0  0  0
   -1.6616   -2.9394    1.0142 H   0  0  0  0  0  0  0  0  0  0  0  0
   -3.4136   -3.0727    0.7684 H   0  0  0  0  0  0  0  0  0  0  0  0
   -1.6938   -1.2578    3.5304 H   0  0  0  0  0  0  0  0  0  0  0  0
   -0.7095   -0.7497    2.1512 H   0  0  0  0  0  0  0  0  0  0  0  0
   -1.8771    0.3694    2.8713 H   0  0  0  0  0  0  0  0  0  0  0  0
   -1.9756   -1.6891   -1.0158 H   0  0  0  0  0  0  0  0  0  0  0  0
   -2.0411   -0.6033   -3.2881 H   0  0  0  0  0  0  0  0  0  0  0  0
   -0.1407   -0.3245   -4.8635 H   0  0  0  0  0  0  0  0  0  0  0  0
    1.7900   -0.0832   -3.4015 H   0  0  0  0  0  0  0  0  0  0  0  0
    1.1015    1.3868   -2.6637 H   0  0  0  0  0  0  0  0  0  0  0  0
    1.5829    1.3737   -4.3627 H   0  0  0  0  0  0  0  0  0  0  0  0
   -2.0976    1.1969   -4.7540 H   0  0  0  0  0  0  0  0  0  0  0  0
   -1.2206    2.2588   -3.6322 H   0  0  0  0  0  0  0  0  0  0  0  0
   -0.6214    2.0146   -5.2771 H   0  0  0  0  0  0  0  0  0  0  0  0
   -0.8864   -3.9072   -3.5861 H   0  0  0  0  0  0  0  0  0  0  0  0
   -1.1743   -2.5761   -4.7270 H   0  0  0  0  0  0  0  0  0  0  0  0
   -2.3316   -2.8951   -3.4006 H   0  0  0  0  0  0  0  0  0  0  0  0
    1.9487   -2.9920   -0.1838 H   0  0  0  0  0  0  0  0  0  0  0  0
    1.2974   -1.6155    0.7093 H   0  0  0  0  0  0  0  0  0  0  0  0
    4.0307   -2.8216    1.1359 H   0  0  0  0  0  0  0  0  0  0  0  0
    6.2356   -1.8298    1.3337 H   0  0  0  0  0  0  0  0  0  0  0  0
    4.9579    1.4583   -1.1693 H   0  0  0  0  0  0  0  0  0  0  0  0
    2.7293    0.4872   -1.2958 H   0  0  0  0  0  0  0  0  0  0  0  0
    7.1207    1.3654   -0.4463 H   0  0  0  0  0  0  0  0  0  0  0  0
    9.4368    1.0721   -0.7177 H   0  0  0  0  0  0  0  0  0  0  0  0
   10.3442    2.8084    0.9919 H   0  0  0  0  0  0  0  0  0  0  0  0
    8.7690    2.9902    0.2304 H   0  0  0  0  0  0  0  0  0  0  0  0
    7.6057    2.1410    2.2407 H   0  0  0  0  0  0  0  0  0  0  0  0
    9.1317    1.9366    3.0768 H   0  0  0  0  0  0  0  0  0  0  0  0
    7.9499    4.5783    2.1025 H   0  0  0  0  0  0  0  0  0  0  0  0
    8.0647    3.9974    3.7711 H   0  0  0  0  0  0  0  0  0  0  0  0
   10.5131    4.0787    3.5619 H   0  0  0  0  0  0  0  0  0  0  0  0
   12.0431    6.4643    1.7190 H   0  0  0  0  0  0  0  0  0  0  0  0
   11.8433    5.9424    3.3228 H   0  0  0  0  0  0  0  0  0  0  0  0
   11.2206   -0.0515   -0.2072 H   0  0  0  0  0  0  0  0  0  0  0  0
   13.0722   -0.8297    2.6829 H   0  0  0  0  0  0  0  0  0  0  0  0
   11.3138   -2.5283    0.8034 H   0  0  0  0  0  0  0  0  0  0  0  0
   10.7976   -3.8491    2.8305 H   0  0  0  0  0  0  0  0  0  0  0  0
   11.7704   -2.7522    3.8260 H   0  0  0  0  0  0  0  0  0  0  0  0
   10.2832   -2.1821    3.0483 H   0  0  0  0  0  0  0  0  0  0  0  0
   13.6344   -3.2833    0.5492 H   0  0  0  0  0  0  0  0  0  0  0  0
   13.8721   -3.2977    2.3067 H   0  0  0  0  0  0  0  0  0  0  0  0
   12.7658   -4.4520    1.5400 H   0  0  0  0  0  0  0  0  0  0  0  0
   13.2004   -1.1507   -0.2529 H   0  0  0  0  0  0  0  0  0  0  0  0
   14.8198   -0.2233   -1.3389 H   0  0  0  0  0  0  0  0  0  0  0  0
   15.0672    1.4545   -0.8653 H   0  0  0  0  0  0  0  0  0  0  0  0
   17.0211    0.6986    0.5995 H   0  0  0  0  0  0  0  0  0  0  0  0
   17.2464    0.5026   -1.1314 H   0  0  0  0  0  0  0  0  0  0  0  0
   16.5951   -1.9309   -0.9291 H   0  0  0  0  0  0  0  0  0  0  0  0
   16.3520   -1.6973    0.7962 H   0  0  0  0  0  0  0  0  0  0  0  0
   18.8672   -0.8932    0.8451 H   0  0  0  0  0  0  0  0  0  0  0  0
   18.4286   -2.5969    0.8393 H   0  0  0  0  0  0  0  0  0  0  0  0
   20.2052   -2.4306   -0.6831 H   0  0  0  0  0  0  0  0  0  0  0  0
   18.7572   -2.6759   -1.6679 H   0  0  0  0  0  0  0  0  0  0  0  0
   21.3683    1.9259   -2.4492 H   0  0  0  0  0  0  0  0  0  0  0  0
   19.5211    1.3236   -4.2950 H   0  0  0  0  0  0  0  0  0  0  0  0
  1  2  1  0
  2  3  1  0
  3  4  1  0
  3  5  1  0
  5  6  1  0
  6  7  1  0
  7  8  1  0
  8  9  2  0
  8 10  1  0
 10 11  1  0
 11 12  1  0
 12 13  1  0
 13 14  1  0
 14 15  1  0
 15 16  1  0
 16 17  1  0
 16 18  1  0
 18 19  2  0
 18 20  1  0
 20 21  1  0
 21 22  1  0
 21 23  1  0
 23 24  1  0
 24 25  2  0
 25 26  1  0
 26 27  2  0
 27 28  1  0
 28 29  2  0
 23 30  1  0
 15 31  1  0
 31 32  1  0
  6 33  1  0
 33 34  1  0
  5 35  1  0
 35 36  1  0
 35 37  1  0
 37 38  2  0
 37 39  1  0
 39 40  1  0
 40 41  1  0
 40 42  1  0
 39 43  1  0
 43 44  1  0
 44 45  2  0
 44 46  1  0
 46 47  1  0
 47 48  1  0
 47 49  1  0
 46 50  1  0
 50 51  1  0
 50 52  1  0
 52 53  2  0
 52 54  1  0
 54 55  1  0
 55 56  1  0
 56 57  1  0
 57 58  2  0
 58 59  1  0
 59 60  2  0
 60 61  1  0
 59 62  1  0
 62 63  1  0
 63 64  2  0
 63 65  1  0
 65 66  1  0
 66 67  1  0
 67 68  1  0
 68 69  1  0
 69 70  1  0
 70 71  2  0
 70 72  1  0
 65 73  1  0
 73 74  1  0
 74 75  2  0
 74 76  1  0
 76 77  1  0
 77 78  1  0
 77 79  1  0
 76 80  1  0
 80 81  1  0
 81 82  2  0
 81 83  1  0
 83 84  1  0
 84 85  1  0
 85 86  1  0
 86 87  1  0
 87 88  1  0
 88 89  1  0
 89 90  2  0
 89 91  1  0
 91 92  2  0
 92 93  1  0
 93 94  2  0
 14 10  1  0
 29 24  1  0
 61 56  2  0
 93 88  1  0
  1 95  1  0
  1 96  1  0
  1 97  1  0
  2 98  1  0
  2 99  1  0
  3100  1  1
  4101  1  0
  4102  1  0
  4103  1  0
  5104  1  1
  6105  1  1
  7106  1  0
  7107  1  0
 11108  1  0
 11109  1  0
 12110  1  0
 12111  1  0
 13112  1  0
 13113  1  0
 14114  1  6
 15115  1  6
 16116  1  1
 17117  1  0
 17118  1  0
 17119  1  0
 20120  1  0
 21121  1  6
 22122  1  0
 22123  1  0
 22124  1  0
 23125  1  1
 25126  1  0
 26127  1  0
 27128  1  0
 28129  1  0
 29130  1  0
 30131  1  0
 32132  1  0
 32133  1  0
 32134  1  0
 34135  1  0
 34136  1  0
 34137  1  0
 36138  1  0
 36139  1  0
 36140  1  0
 39141  1  1
 40142  1  0
 41143  1  0
 41144  1  0
 41145  1  0
 42146  1  0
 42147  1  0
 42148  1  0
 43149  1  0
 46150  1  6
 47151  1  0
 48152  1  0
 48153  1  0
 48154  1  0
 49155  1  0
 49156  1  0
 49157  1  0
 51158  1  0
 51159  1  0
 51160  1  0
 55161  1  0
 55162  1  0
 57163  1  0
 58164  1  0
 60165  1  0
 61166  1  0
 62167  1  0
 65168  1  6
 66169  1  0
 66170  1  0
 67171  1  0
 67172  1  0
 68173  1  0
 68174  1  0
 69175  1  0
 72176  1  0
 72177  1  0
 73178  1  0
 76179  1  1
 77180  1  0
 78181  1  0
 78182  1  0
 78183  1  0
 79184  1  0
 79185  1  0
 79186  1  0
 80187  1  0
 83188  1  0
 83189  1  0
 84190  1  0
 84191  1  0
 85192  1  0
 85193  1  0
 86194  1  0
 86195  1  0
 87196  1  0
 87197  1  0
 91198  1  0
 92199  1  0
M  END
$$$$

     RDKit          3D

199202  0  0  0  0  0  0  0  0999 V2000
   -6.0257    2.3473    2.1294 C   0  0  0  0  0  0  0  0  0  0  0  0
   -5.5349    1.2448    1.1964 C   0  0  0  0  0  0  0  0  0  0  0  0
   -6.6650    0.3199    0.6808 C   0  0  2  0  0  0  0  0  0  0  0  0
   -7.2873   -0.4536    1.8512 C   0  0  0  0  0  0  0  0  0  0  0  0
   -6.1730   -0.6580   -0.4462 C   0  0  1  0  0  0  0  0  0  0  0  0
   -7.2679   -1.6609   -0.9923 C   0  0  1  0  0  0  0  0  0  0  0  0
   -8.5870   -1.0084   -1.4550 C   0  0  0  0  0  0  0  0  0  0  0  0
   -9.7666   -1.9693   -1.4079 C   0  0  0  0  0  0  0  0  0  0  0  0
   -9.6160   -3.1897   -1.4705 O   0  0  0  0  0  0  0  0  0  0  0  0
  -11.0295   -1.4179   -1.3778 N   0  0  0  0  0  0  0  0  0  0  0  0
  -12.1727   -2.1949   -1.8193 C   0  0  0  0  0  0  0  0  0  0  0  0
  -13.1290   -1.1335   -2.3250 C   0  0  0  0  0  0  0  0  0  0  0  0
  -12.9463   -0.0181   -1.3059 C   0  0  0  0  0  0  0  0  0  0  0  0
  -11.4554   -0.0765   -0.9231 C   0  0  1  0  0  0  0  0  0  0  0  0
  -11.1986    0.1499    0.6050 C   0  0  1  0  0  0  0  0  0  0  0  0
  -11.4483    1.5902    1.1108 C   0  0  1  0  0  0  0  0  0  0  0  0
  -10.5517    2.6098    0.4065 C   0  0  0  0  0  0  0  0  0  0  0  0
  -12.9099    2.0349    1.0595 C   0  0  0  0  0  0  0  0  0  0  0  0
  -13.2897    3.0012    0.4066 O   0  0  0  0  0  0  0  0  0  0  0  0
  -13.7499    1.2833    1.8432 N   0  0  0  0  0  0  0  0  0  0  0  0
  -15.1601    1.6092    2.0681 C   0  0  2  0  0  0  0  0  0  0  0  0
  -15.2538    2.7339    3.1056 C   0  0  0  0  0  0  0  0  0  0  0  0
  -15.9733    0.3735    2.5485 C   0  0  1  0  0  0  0  0  0  0  0  0
  -16.1946   -0.6776    1.4753 C   0  0  0  0  0  0  0  0  0  0  0  0
  -15.3285   -1.7701    1.3161 C   0  0  0  0  0  0  0  0  0  0  0  0
  -15.5634   -2.7288    0.3288 C   0  0  0  0  0  0  0  0  0  0  0  0
  -16.6592   -2.6043   -0.5209 C   0  0  0  0  0  0  0  0  0  0  0  0
  -17.5240   -1.5204   -0.3810 C   0  0  0  0  0  0  0  0  0  0  0  0
  -17.2935   -0.5624    0.6084 C   0  0  0  0  0  0  0  0  0  0  0  0
  -15.3519   -0.2106    3.7036 O   0  0  0  0  0  0  0  0  0  0  0  0
  -11.9696   -0.7562    1.4171 O   0  0  0  0  0  0  0  0  0  0  0  0
  -11.2140   -1.8314    1.9606 C   0  0  0  0  0  0  0  0  0  0  0  0
   -6.6894   -2.3751   -2.1035 O   0  0  0  0  0  0  0  0  0  0  0  0
   -6.4936   -3.7606   -1.8475 C   0  0  0  0  0  0  0  0  0  0  0  0
   -5.4483    0.0807   -1.5289 N   0  0  0  0  0  0  0  0  0  0  0  0
   -6.2311    0.8485   -2.4895 C   0  0  0  0  0  0  0  0  0  0  0  0
   -4.0719    0.0359   -1.7626 C   0  0  0  0  0  0  0  0  0  0  0  0
   -3.5698    0.5922   -2.7513 O   0  0  0  0  0  0  0  0  0  0  0  0
   -3.1318   -0.6895   -0.7642 C   0  0  1  0  0  0  0  0  0  0  0  0
   -2.9847   -2.1978   -1.0487 C   0  0  0  0  0  0  0  0  0  0  0  0
   -2.1722   -2.5124   -2.3075 C   0  0  0  0  0  0  0  0  0  0  0  0
   -2.3677   -2.9092    0.1591 C   0  0  0  0  0  0  0  0  0  0  0  0
   -1.8520    0.0102   -0.8589 N   0  0  0  0  0  0  0  0  0  0  0  0
   -1.3527    0.7901    0.1620 C   0  0  0  0  0  0  0  0  0  0  0  0
   -1.8008    0.7472    1.3034 O   0  0  0  0  0  0  0  0  0  0  0  0
   -0.2872    1.8221   -0.3010 C   0  0  1  0  0  0  0  0  0  0  0  0
    0.8319    2.1930    0.7114 C   0  0  0  0  0  0  0  0  0  0  0  0
    0.4701    3.4977    1.4409 C   0  0  0  0  0  0  0  0  0  0  0  0
    1.1721    1.1320    1.7624 C   0  0  0  0  0  0  0  0  0  0  0  0
    0.1977    1.5795   -1.6863 N   0  0  0  0  0  0  0  0  0  0  0  0
   -0.1031    2.6059   -2.6761 C   0  0  0  0  0  0  0  0  0  0  0  0
    1.0432    0.5459   -2.0502 C   0  0  0  0  0  0  0  0  0  0  0  0
    1.4547    0.3860   -3.1916 O   0  0  0  0  0  0  0  0  0  0  0  0
    1.3361   -0.2797   -1.0192 O   0  0  0  0  0  0  0  0  0  0  0  0
    2.1943   -1.3855   -1.3305 C   0  0  0  0  0  0  0  0  0  0  0  0
    3.6472   -0.9774   -1.3090 C   0  0  0  0  0  0  0  0  0  0  0  0
    4.3354   -0.7629   -2.5090 C   0  0  0  0  0  0  0  0  0  0  0  0
    5.6675   -0.3349   -2.5081 C   0  0  0  0  0  0  0  0  0  0  0  0
    6.3409   -0.1177   -1.3075 C   0  0  0  0  0  0  0  0  0  0  0  0
    5.6594   -0.3401   -0.1037 C   0  0  0  0  0  0  0  0  0  0  0  0
    4.3237   -0.7622   -0.1031 C   0  0  0  0  0  0  0  0  0  0  0  0
    7.6562    0.3763   -1.2309 N   0  0  0  0  0  0  0  0  0  0  0  0
    8.5084    0.6758   -2.2800 C   0  0  0  0  0  0  0  0  0  0  0  0
    8.3591    0.3403   -3.4526 O   0  0  0  0  0  0  0  0  0  0  0  0
    9.7174    1.5536   -1.8676 C   0  0  1  0  0  0  0  0  0  0  0  0
    9.2346    2.8853   -1.2618 C   0  0  0  0  0  0  0  0  0  0  0  0
   10.3094    3.9592   -1.0509 C   0  0  0  0  0  0  0  0  0  0  0  0
   11.3051    3.7196    0.0826 C   0  0  0  0  0  0  0  0  0  0  0  0
   10.6599    3.4601    1.3569 N   0  0  0  0  0  0  0  0  0  0  0  0
   11.3923    3.5064    2.5069 C   0  0  0  0  0  0  0  0  0  0  0  0
   12.5604    3.8431    2.6079 O   0  0  0  0  0  0  0  0  0  0  0  0
   10.6645    3.1173    3.5867 N   0  0  0  0  0  0  0  0  0  0  0  0
   10.6946    0.8119   -1.0811 N   0  0  0  0  0  0  0  0  0  0  0  0
   10.5532    0.4292    0.2296 C   0  0  0  0  0  0  0  0  0  0  0  0
    9.5025    0.6424    0.8393 O   0  0  0  0  0  0  0  0  0  0  0  0
   11.8619   -0.0802    0.9161 C   0  0  1  0  0  0  0  0  0  0  0  0
   11.5702   -0.6686    2.3207 C   0  0  0  0  0  0  0  0  0  0  0  0
   12.8605   -0.8362    3.1327 C   0  0  0  0  0  0  0  0  0  0  0  0
   10.8036   -1.9939    2.2739 C   0  0  0  0  0  0  0  0  0  0  0  0
   12.6678   -0.9934    0.0892 N   0  0  0  0  0  0  0  0  0  0  0  0
   13.4857   -0.5352   -0.9210 C   0  0  0  0  0  0  0  0  0  0  0  0
   13.3863    0.5981   -1.3806 O   0  0  0  0  0  0  0  0  0  0  0  0
   14.4482   -1.5832   -1.4462 C   0  0  0  0  0  0  0  0  0  0  0  0
   15.4453   -1.0458   -2.4759 C   0  0  0  0  0  0  0  0  0  0  0  0
   16.4719   -0.0371   -1.9411 C   0  0  0  0  0  0  0  0  0  0  0  0
   17.2890   -0.4912   -0.7289 C   0  0  0  0  0  0  0  0  0  0  0  0
   18.1404   -1.7325   -0.9978 C   0  0  0  0  0  0  0  0  0  0  0  0
   18.8083   -2.1830    0.2058 N   0  0  0  0  0  0  0  0  0  0  0  0
   20.0271   -1.7603    0.6240 C   0  0  0  0  0  0  0  0  0  0  0  0
   20.7977   -0.9853    0.0883 O   0  0  0  0  0  0  0  0  0  0  0  0
   20.2820   -2.4083    1.9168 C   0  0  0  0  0  0  0  0  0  0  0  0
   19.2055   -3.1331    2.2287 C   0  0  0  0  0  0  0  0  0  0  0  0
   18.2283   -2.9702    1.1470 C   0  0  0  0  0  0  0  0  0  0  0  0
   17.1121   -3.4587    1.1563 O   0  0  0  0  0  0  0  0  0  0  0  0
   -5.2438    3.1025    2.2568 H   0  0  0  0  0  0  0  0  0  0  0  0
   -6.9136    2.8455    1.7286 H   0  0  0  0  0  0  0  0  0  0  0  0
   -6.2616    1.9548    3.1224 H   0  0  0  0  0  0  0  0  0  0  0  0
   -5.0428    1.7385    0.3508 H   0  0  0  0  0  0  0  0  0  0  0  0
   -4.7695    0.6572    1.7196 H   0  0  0  0  0  0  0  0  0  0  0  0
   -7.4349    0.9773    0.2634 H   0  0  0  0  0  0  0  0  0  0  0  0
   -6.5541   -1.1180    2.3209 H   0  0  0  0  0  0  0  0  0  0  0  0
   -7.6737    0.2233    2.6192 H   0  0  0  0  0  0  0  0  0  0  0  0
   -8.1343   -1.0646    1.5279 H   0  0  0  0  0  0  0  0  0  0  0  0
   -5.4330   -1.3103    0.0246 H   0  0  0  0  0  0  0  0  0  0  0  0
   -7.4993   -2.3647   -0.1814 H   0  0  0  0  0  0  0  0  0  0  0  0
   -8.5138   -0.6860   -2.5002 H   0  0  0  0  0  0  0  0  0  0  0  0
   -8.8163   -0.1391   -0.8486 H   0  0  0  0  0  0  0  0  0  0  0  0
  -12.5771   -2.7300   -0.9544 H   0  0  0  0  0  0  0  0  0  0  0  0
  -11.8980   -2.9166   -2.5949 H   0  0  0  0  0  0  0  0  0  0  0  0
  -14.1609   -1.4862   -2.3925 H   0  0  0  0  0  0  0  0  0  0  0  0
  -12.8186   -0.7832   -3.3167 H   0  0  0  0  0  0  0  0  0  0  0  0
  -13.2282    0.9586   -1.7106 H   0  0  0  0  0  0  0  0  0  0  0  0
  -13.5944   -0.2235   -0.4505 H   0  0  0  0  0  0  0  0  0  0  0  0
  -10.8876    0.6466   -1.5198 H   0  0  0  0  0  0  0  0  0  0  0  0
  -10.1403   -0.0490    0.8020 H   0  0  0  0  0  0  0  0  0  0  0  0
  -11.1806    1.6126    2.1788 H   0  0  0  0  0  0  0  0  0  0  0  0
  -10.6294    3.5899    0.8931 H   0  0  0  0  0  0  0  0  0  0  0  0
   -9.5015    2.3034    0.4414 H   0  0  0  0  0  0  0  0  0  0  0  0
  -10.8368    2.7503   -0.6412 H   0  0  0  0  0  0  0  0  0  0  0  0
  -13.3813    0.4593    2.3112 H   0  0  0  0  0  0  0  0  0  0  0  0
  -15.5768    1.9785    1.1240 H   0  0  0  0  0  0  0  0  0  0  0  0
  -16.2974    3.0109    3.2889 H   0  0  0  0  0  0  0  0  0  0  0  0
  -14.8041    2.4367    4.0590 H   0  0  0  0  0  0  0  0  0  0  0  0
  -14.7273    3.6315    2.7616 H   0  0  0  0  0  0  0  0  0  0  0  0
  -16.9617    0.7107    2.8860 H   0  0  0  0  0  0  0  0  0  0  0  0
  -14.4527   -1.8784    1.9530 H   0  0  0  0  0  0  0  0  0  0  0  0
  -14.8816   -3.5690    0.2136 H   0  0  0  0  0  0  0  0  0  0  0  0
  -16.8417   -3.3489   -1.2916 H   0  0  0  0  0  0  0  0  0  0  0  0
  -18.3774   -1.4196   -1.0459 H   0  0  0  0  0  0  0  0  0  0  0  0
  -17.9817    0.2768    0.7003 H   0  0  0  0  0  0  0  0  0  0  0  0
  -15.8176   -1.0478    3.8731 H   0  0  0  0  0  0  0  0  0  0  0  0
  -10.4530   -1.4487    2.6490 H   0  0  0  0  0  0  0  0  0  0  0  0
  -10.7444   -2.4263    1.1757 H   0  0  0  0  0  0  0  0  0  0  0  0
  -11.8933   -2.4775    2.5231 H   0  0  0  0  0  0  0  0  0  0  0  0
   -7.4495   -4.2793   -1.7515 H   0  0  0  0  0  0  0  0  0  0  0  0
   -5.8966   -3.9083   -0.9431 H   0  0  0  0  0  0  0  0  0  0  0  0
   -5.9554   -4.1882   -2.6972 H   0  0  0  0  0  0  0  0  0  0  0  0
   -7.0978    1.3015   -2.0003 H   0  0  0  0  0  0  0  0  0  0  0  0
   -5.6392    1.6605   -2.9265 H   0  0  0  0  0  0  0  0  0  0  0  0
   -6.5494    0.1808   -3.2967 H   0  0  0  0  0  0  0  0  0  0  0  0
   -3.5227   -0.5395    0.2436 H   0  0  0  0  0  0  0  0  0  0  0  0
   -3.9806   -2.6213   -1.1997 H   0  0  0  0  0  0  0  0  0  0  0  0
   -2.6085   -2.0355   -3.1911 H   0  0  0  0  0  0  0  0  0  0  0  0
   -1.1310   -2.1836   -2.2155 H   0  0  0  0  0  0  0  0  0  0  0  0
   -2.1589   -3.5940   -2.4893 H   0  0  0  0  0  0  0  0  0  0  0  0
   -2.2925   -3.9871   -0.0194 H   0  0  0  0  0  0  0  0  0  0  0  0
   -1.3627   -2.5323    0.3790 H   0  0  0  0  0  0  0  0  0  0  0  0
   -2.9867   -2.7653    1.0516 H   0  0  0  0  0  0  0  0  0  0  0  0
   -1.5983    0.3000   -1.8020 H   0  0  0  0  0  0  0  0  0  0  0  0
   -0.9147    2.7212   -0.4082 H   0  0  0  0  0  0  0  0  0  0  0  0
    1.7518    2.3997    0.1481 H   0  0  0  0  0  0  0  0  0  0  0  0
   -0.4521    3.3808    2.0202 H   0  0  0  0  0  0  0  0  0  0  0  0
    1.2682    3.7972    2.1297 H   0  0  0  0  0  0  0  0  0  0  0  0
    0.3264    4.3159    0.7269 H   0  0  0  0  0  0  0  0  0  0  0  0
    2.0224    1.4628    2.3724 H   0  0  0  0  0  0  0  0  0  0  0  0
    0.3399    0.9558    2.4512 H   0  0  0  0  0  0  0  0  0  0  0  0
    1.4509    0.1763    1.3152 H   0  0  0  0  0  0  0  0  0  0  0  0
    0.4739    3.4992   -2.4265 H   0  0  0  0  0  0  0  0  0  0  0  0
   -1.1727    2.8301   -2.6496 H   0  0  0  0  0  0  0  0  0  0  0  0
    0.1607    2.2880   -3.6881 H   0  0  0  0  0  0  0  0  0  0  0  0
    2.0296   -2.1529   -0.5643 H   0  0  0  0  0  0  0  0  0  0  0  0
    1.9135   -1.8535   -2.2821 H   0  0  0  0  0  0  0  0  0  0  0  0
    3.8305   -0.9009   -3.4643 H   0  0  0  0  0  0  0  0  0  0  0  0
    6.1392   -0.1635   -3.4707 H   0  0  0  0  0  0  0  0  0  0  0  0
    6.1544   -0.1726    0.8508 H   0  0  0  0  0  0  0  0  0  0  0  0
    3.8104   -0.9080    0.8457 H   0  0  0  0  0  0  0  0  0  0  0  0
    8.0367    0.5250   -0.2948 H   0  0  0  0  0  0  0  0  0  0  0  0
   10.2385    1.7913   -2.8060 H   0  0  0  0  0  0  0  0  0  0  0  0
    8.4925    3.3073   -1.9547 H   0  0  0  0  0  0  0  0  0  0  0  0
    8.6798    2.7279   -0.3303 H   0  0  0  0  0  0  0  0  0  0  0  0
   10.8620    4.1064   -1.9872 H   0  0  0  0  0  0  0  0  0  0  0  0
    9.7897    4.9039   -0.8446 H   0  0  0  0  0  0  0  0  0  0  0  0
   11.9802    2.8894   -0.1389 H   0  0  0  0  0  0  0  0  0  0  0  0
   11.9402    4.6080    0.1942 H   0  0  0  0  0  0  0  0  0  0  0  0
    9.9721    2.7150    1.3765 H   0  0  0  0  0  0  0  0  0  0  0  0
   11.1344    3.3022    4.4633 H   0  0  0  0  0  0  0  0  0  0  0  0
    9.6884    3.3758    3.5717 H   0  0  0  0  0  0  0  0  0  0  0  0
   11.6476    0.8103   -1.4451 H   0  0  0  0  0  0  0  0  0  0  0  0
   12.4707    0.8242    1.0579 H   0  0  0  0  0  0  0  0  0  0  0  0
   10.9461    0.0504    2.8694 H   0  0  0  0  0  0  0  0  0  0  0  0
   13.4009    0.1145    3.2039 H   0  0  0  0  0  0  0  0  0  0  0  0
   12.6337   -1.1660    4.1520 H   0  0  0  0  0  0  0  0  0  0  0  0
   13.5315   -1.5769    2.6832 H   0  0  0  0  0  0  0  0  0  0  0  0
    9.8494   -1.8818    1.7482 H   0  0  0  0  0  0  0  0  0  0  0  0
   11.3779   -2.7804    1.7712 H   0  0  0  0  0  0  0  0  0  0  0  0
   10.5818   -2.3439    3.2881 H   0  0  0  0  0  0  0  0  0  0  0  0
   12.9278   -1.8782    0.5043 H   0  0  0  0  0  0  0  0  0  0  0  0
   14.9700   -2.0501   -0.6059 H   0  0  0  0  0  0  0  0  0  0  0  0
   13.8413   -2.3626   -1.9249 H   0  0  0  0  0  0  0  0  0  0  0  0
   15.9768   -1.8953   -2.9197 H   0  0  0  0  0  0  0  0  0  0  0  0
   14.8955   -0.5699   -3.2967 H   0  0  0  0  0  0  0  0  0  0  0  0
   17.1601    0.2186   -2.7575 H   0  0  0  0  0  0  0  0  0  0  0  0
   15.9623    0.8971   -1.6780 H   0  0  0  0  0  0  0  0  0  0  0  0
   16.6243   -0.6603    0.1260 H   0  0  0  0  0  0  0  0  0  0  0  0
   17.9486    0.3323   -0.4278 H   0  0  0  0  0  0  0  0  0  0  0  0
   17.5181   -2.5569   -1.3593 H   0  0  0  0  0  0  0  0  0  0  0  0
   18.8961   -1.5068   -1.7577 H   0  0  0  0  0  0  0  0  0  0  0  0
   21.1915   -2.2747    2.4758 H   0  0  0  0  0  0  0  0  0  0  0  0
   19.0303   -3.7337    3.1039 H   0  0  0  0  0  0  0  0  0  0  0  0
  1  2  1  0
  2  3  1  0
  3  4  1  0
  3  5  1  0
  5  6  1  0
  6  7  1  0
  7  8  1  0
  8  9  2  0
  8 10  1  0
 10 11  1  0
 11 12  1  0
 12 13  1  0
 13 14  1  0
 14 15  1  0
 15 16  1  0
 16 17  1  0
 16 18  1  0
 18 19  2  0
 18 20  1  0
 20 21  1  0
 21 22  1  0
 21 23  1  0
 23 24  1  0
 24 25  2  0
 25 26  1  0
 26 27  2  0
 27 28  1  0
 28 29  2  0
 23 30  1  0
 15 31  1  0
 31 32  1  0
  6 33  1  0
 33 34  1  0
  5 35  1  0
 35 36  1  0
 35 37  1  0
 37 38  2  0
 37 39  1  0
 39 40  1  0
 40 41  1  0
 40 42  1  0
 39 43  1  0
 43 44  1  0
 44 45  2  0
 44 46  1  0
 46 47  1  0
 47 48  1  0
 47 49  1  0
 46 50  1  0
 50 51  1  0
 50 52  1  0
 52 53  2  0
 52 54  1  0
 54 55  1  0
 55 56  1  0
 56 57  1  0
 57 58  2  0
 58 59  1  0
 59 60  2  0
 60 61  1  0
 59 62  1  0
 62 63  1  0
 63 64  2  0
 63 65  1  0
 65 66  1  0
 66 67  1  0
 67 68  1  0
 68 69  1  0
 69 70  1  0
 70 71  2  0
 70 72  1  0
 65 73  1  0
 73 74  1  0
 74 75  2  0
 74 76  1  0
 76 77  1  0
 77 78  1  0
 77 79  1  0
 76 80  1  0
 80 81  1  0
 81 82  2  0
 81 83  1  0
 83 84  1  0
 84 85  1  0
 85 86  1  0
 86 87  1  0
 87 88  1  0
 88 89  1  0
 89 90  2  0
 89 91  1  0
 91 92  2  0
 92 93  1  0
 93 94  2  0
 14 10  1  0
 29 24  1  0
 61 56  2  0
 93 88  1  0
  1 95  1  0
  1 96  1  0
  1 97  1  0
  2 98  1  0
  2 99  1  0
  3100  1  6
  4101  1  0
  4102  1  0
  4103  1  0
  5104  1  1
  6105  1  1
  7106  1  0
  7107  1  0
 11108  1  0
 11109  1  0
 12110  1  0
 12111  1  0
 13112  1  0
 13113  1  0
 14114  1  6
 15115  1  6
 16116  1  1
 17117  1  0
 17118  1  0
 17119  1  0
 20120  1  0
 21121  1  6
 22122  1  0
 22123  1  0
 22124  1  0
 23125  1  1
 25126  1  0
 26127  1  0
 27128  1  0
 28129  1  0
 29130  1  0
 30131  1  0
 32132  1  0
 32133  1  0
 32134  1  0
 34135  1  0
 34136  1  0
 34137  1  0
 36138  1  0
 36139  1  0
 36140  1  0
 39141  1  1
 40142  1  0
 41143  1  0
 41144  1  0
 41145  1  0
 42146  1  0
 42147  1  0
 42148  1  0
 43149  1  0
 46150  1  6
 47151  1  0
 48152  1  0
 48153  1  0
 48154  1  0
 49155  1  0
 49156  1  0
 49157  1  0
 51158  1  0
 51159  1  0
 51160  1  0
 55161  1  0
 55162  1  0
 57163  1  0
 58164  1  0
 60165  1  0
 61166  1  0
 62167  1  0
 65168  1  6
 66169  1  0
 66170  1  0
 67171  1  0
 67172  1  0
 68173  1  0
 68174  1  0
 69175  1  0
 72176  1  0
 72177  1  0
 73178  1  0
 76179  1  1
 77180  1  0
 78181  1  0
 78182  1  0
 78183  1  0
 79184  1  0
 79185  1  0
 79186  1  0
 80187  1  0
 83188  1  0
 83189  1  0
 84190  1  0
 84191  1  0
 85192  1  0
 85193  1  0
 86194  1  0
 86195  1  0
 87196  1  0
 87197  1  0
 91198  1  0
 92199  1  0
M  END
$$$$

     RDKit          3D

199202  0  0  0  0  0  0  0  0999 V2000
   -6.1684    3.2715   -0.8827 C   0  0  0  0  0  0  0  0  0  0  0  0
   -6.6218    2.0354   -1.6550 C   0  0  0  0  0  0  0  0  0  0  0  0
   -5.6332    0.8476   -1.5470 C   0  0  2  0  0  0  0  0  0  0  0  0
   -5.8585   -0.0942   -2.7382 C   0  0  0  0  0  0  0  0  0  0  0  0
   -5.6459    0.1876   -0.1181 C   0  0  1  0  0  0  0  0  0  0  0  0
   -6.4936   -1.0991    0.1391 C   0  0  1  0  0  0  0  0  0  0  0  0
   -7.9910   -0.8163   -0.0490 C   0  0  0  0  0  0  0  0  0  0  0  0
   -8.8370   -1.8814    0.6133 C   0  0  0  0  0  0  0  0  0  0  0  0
   -8.7303   -2.0790    1.8271 O   0  0  0  0  0  0  0  0  0  0  0  0
   -9.7195   -2.6285   -0.1497 N   0  0  0  0  0  0  0  0  0  0  0  0
  -10.3130   -3.8085    0.4764 C   0  0  0  0  0  0  0  0  0  0  0  0
  -10.7643   -4.7035   -0.6681 C   0  0  0  0  0  0  0  0  0  0  0  0
   -9.8568   -4.2620   -1.8085 C   0  0  0  0  0  0  0  0  0  0  0  0
   -9.7866   -2.7301   -1.6186 C   0  0  1  0  0  0  0  0  0  0  0  0
  -11.0404   -2.0225   -2.2521 C   0  0  1  0  0  0  0  0  0  0  0  0
  -10.9824   -0.4777   -2.2007 C   0  0  1  0  0  0  0  0  0  0  0  0
  -11.9087    0.2108   -3.2135 C   0  0  0  0  0  0  0  0  0  0  0  0
  -11.3117    0.0898   -0.8277 C   0  0  0  0  0  0  0  0  0  0  0  0
  -10.5460    0.8683   -0.2575 O   0  0  0  0  0  0  0  0  0  0  0  0
  -12.5452   -0.2347   -0.3186 N   0  0  0  0  0  0  0  0  0  0  0  0
  -13.0125    0.2128    0.9984 C   0  0  2  0  0  0  0  0  0  0  0  0
  -12.4956   -0.7515    2.0662 C   0  0  0  0  0  0  0  0  0  0  0  0
  -14.5699    0.2736    1.0356 C   0  0  1  0  0  0  0  0  0  0  0  0
  -15.2263    1.5283    0.4821 C   0  0  0  0  0  0  0  0  0  0  0  0
  -16.4882    1.9064    0.9770 C   0  0  0  0  0  0  0  0  0  0  0  0
  -17.1410    3.0416    0.4935 C   0  0  0  0  0  0  0  0  0  0  0  0
  -16.5500    3.8116   -0.5041 C   0  0  0  0  0  0  0  0  0  0  0  0
  -15.3075    3.4452   -1.0148 C   0  0  0  0  0  0  0  0  0  0  0  0
  -14.6534    2.3084   -0.5320 C   0  0  0  0  0  0  0  0  0  0  0  0
  -15.0983   -0.8713    0.3402 O   0  0  0  0  0  0  0  0  0  0  0  0
  -11.1084   -2.4235   -3.6388 O   0  0  0  0  0  0  0  0  0  0  0  0
  -12.3343   -3.0633   -3.9839 C   0  0  0  0  0  0  0  0  0  0  0  0
   -6.0873   -2.1525   -0.7512 O   0  0  0  0  0  0  0  0  0  0  0  0
   -5.7857   -3.3646   -0.0671 C   0  0  0  0  0  0  0  0  0  0  0  0
   -4.2606    0.0442    0.4314 N   0  0  0  0  0  0  0  0  0  0  0  0
   -3.2150   -0.5314   -0.3979 C   0  0  0  0  0  0  0  0  0  0  0  0
   -4.0186    0.5220    1.7248 C   0  0  0  0  0  0  0  0  0  0  0  0
   -4.9456    0.6767    2.5237 O   0  0  0  0  0  0  0  0  0  0  0  0
   -2.5748    1.0166    2.0460 C   0  0  1  0  0  0  0  0  0  0  0  0
   -2.4337    1.8477    3.3548 C   0  0  0  0  0  0  0  0  0  0  0  0
   -2.6999    1.0470    4.6331 C   0  0  0  0  0  0  0  0  0  0  0  0
   -3.2706    3.1325    3.3327 C   0  0  0  0  0  0  0  0  0  0  0  0
   -1.5433   -0.0288    2.0265 N   0  0  0  0  0  0  0  0  0  0  0  0
   -0.2682    0.3017    1.5932 C   0  0  0  0  0  0  0  0  0  0  0  0
   -0.0588    1.3303    0.9406 O   0  0  0  0  0  0  0  0  0  0  0  0
    0.8571   -0.6834    2.0040 C   0  0  1  0  0  0  0  0  0  0  0  0
    0.7479   -2.1192    1.4232 C   0  0  0  0  0  0  0  0  0  0  0  0
    1.9340   -2.9907    1.8526 C   0  0  0  0  0  0  0  0  0  0  0  0
    0.5216   -2.2520   -0.0832 C   0  0  0  0  0  0  0  0  0  0  0  0
    2.1844   -0.0232    1.9793 N   0  0  0  0  0  0  0  0  0  0  0  0
    2.6655    0.5093    3.2433 C   0  0  0  0  0  0  0  0  0  0  0  0
    2.7208    0.5555    0.8313 C   0  0  0  0  0  0  0  0  0  0  0  0
    3.5776    1.4349    0.8577 O   0  0  0  0  0  0  0  0  0  0  0  0
    2.1922    0.0535   -0.3101 O   0  0  0  0  0  0  0  0  0  0  0  0
    2.4878    0.7815   -1.5103 C   0  0  0  0  0  0  0  0  0  0  0  0
    3.9115    0.6519   -2.0016 C   0  0  0  0  0  0  0  0  0  0  0  0
    4.4542    1.6789   -2.7878 C   0  0  0  0  0  0  0  0  0  0  0  0
    5.7876    1.6350   -3.2066 C   0  0  0  0  0  0  0  0  0  0  0  0
    6.6093    0.5717   -2.8383 C   0  0  0  0  0  0  0  0  0  0  0  0
    6.0537   -0.4855   -2.1056 C   0  0  0  0  0  0  0  0  0  0  0  0
    4.7148   -0.4523   -1.7016 C   0  0  0  0  0  0  0  0  0  0  0  0
    7.9937    0.5168   -3.0996 N   0  0  0  0  0  0  0  0  0  0  0  0
    8.7699    1.4768   -3.7299 C   0  0  0  0  0  0  0  0  0  0  0  0
    8.3507    2.4812   -4.3071 O   0  0  0  0  0  0  0  0  0  0  0  0
   10.2856    1.3013   -3.4629 C   0  0  1  0  0  0  0  0  0  0  0  0
   11.0827    1.6182   -4.7314 C   0  0  0  0  0  0  0  0  0  0  0  0
   12.6002    1.7707   -4.5795 C   0  0  0  0  0  0  0  0  0  0  0  0
   13.3222    0.6431   -3.8451 C   0  0  0  0  0  0  0  0  0  0  0  0
   13.3397    0.8403   -2.4121 N   0  0  0  0  0  0  0  0  0  0  0  0
   14.1000    0.0246   -1.6247 C   0  0  0  0  0  0  0  0  0  0  0  0
   14.6256   -1.0228   -1.9760 O   0  0  0  0  0  0  0  0  0  0  0  0
   14.2796    0.5380   -0.3819 N   0  0  0  0  0  0  0  0  0  0  0  0
   10.5560    2.2495   -2.3819 N   0  0  0  0  0  0  0  0  0  0  0  0
   10.2344    1.8892   -1.0831 C   0  0  0  0  0  0  0  0  0  0  0  0
    9.8805    0.7471   -0.7867 O   0  0  0  0  0  0  0  0  0  0  0  0
   10.3158    3.0352   -0.0471 C   0  0  1  0  0  0  0  0  0  0  0  0
    9.2083    4.0948   -0.2601 C   0  0  0  0  0  0  0  0  0  0  0  0
    7.7900    3.5298   -0.1358 C   0  0  0  0  0  0  0  0  0  0  0  0
    9.3837    5.2718    0.7042 C   0  0  0  0  0  0  0  0  0  0  0  0
   10.2745    2.4553    1.2919 N   0  0  0  0  0  0  0  0  0  0  0  0
   11.4097    1.8640    1.8045 C   0  0  0  0  0  0  0  0  0  0  0  0
   12.5052    1.9201    1.2542 O   0  0  0  0  0  0  0  0  0  0  0  0
   11.1816    1.1664    3.1361 C   0  0  0  0  0  0  0  0  0  0  0  0
   12.0735   -0.0638    3.3043 C   0  0  0  0  0  0  0  0  0  0  0  0
   11.5965   -1.2313    2.4291 C   0  0  0  0  0  0  0  0  0  0  0  0
   12.4491   -2.4903    2.6209 C   0  0  0  0  0  0  0  0  0  0  0  0
   13.7862   -2.4200    1.8805 C   0  0  0  0  0  0  0  0  0  0  0  0
   14.6487   -3.5258    2.2370 N   0  0  0  0  0  0  0  0  0  0  0  0
   15.6030   -3.4790    3.1974 C   0  0  0  0  0  0  0  0  0  0  0  0
   15.9204   -2.5546    3.9241 O   0  0  0  0  0  0  0  0  0  0  0  0
   16.2192   -4.8081    3.2577 C   0  0  0  0  0  0  0  0  0  0  0  0
   15.5847   -5.5894    2.3827 C   0  0  0  0  0  0  0  0  0  0  0  0
   14.5427   -4.7826    1.7370 C   0  0  0  0  0  0  0  0  0  0  0  0
   13.7477   -5.2295    0.9324 O   0  0  0  0  0  0  0  0  0  0  0  0
   -6.8804    4.0888   -1.0374 H   0  0  0  0  0  0  0  0  0  0  0  0
   -5.1886    3.6121   -1.2322 H   0  0  0  0  0  0  0  0  0  0  0  0
   -6.1014    3.0850    0.1915 H   0  0  0  0  0  0  0  0  0  0  0  0
   -6.7232    2.3317   -2.7076 H   0  0  0  0  0  0  0  0  0  0  0  0
   -7.6231    1.7371   -1.3200 H   0  0  0  0  0  0  0  0  0  0  0  0
   -4.6370    1.2865   -1.7053 H   0  0  0  0  0  0  0  0  0  0  0  0
   -6.8883   -0.4531   -2.7930 H   0  0  0  0  0  0  0  0  0  0  0  0
   -5.1897   -0.9554   -2.7266 H   0  0  0  0  0  0  0  0  0  0  0  0
   -5.6569    0.4366   -3.6757 H   0  0  0  0  0  0  0  0  0  0  0  0
   -6.1096    0.9328    0.5373 H   0  0  0  0  0  0  0  0  0  0  0  0
   -6.3184   -1.4057    1.1803 H   0  0  0  0  0  0  0  0  0  0  0  0
   -8.2521    0.1223    0.4501 H   0  0  0  0  0  0  0  0  0  0  0  0
   -8.2376   -0.7022   -1.0986 H   0  0  0  0  0  0  0  0  0  0  0  0
   -9.5567   -4.3175    1.0822 H   0  0  0  0  0  0  0  0  0  0  0  0
  -11.1421   -3.5089    1.1243 H   0  0  0  0  0  0  0  0  0  0  0  0
  -11.8133   -4.5135   -0.9152 H   0  0  0  0  0  0  0  0  0  0  0  0
  -10.6637   -5.7664   -0.4328 H   0  0  0  0  0  0  0  0  0  0  0  0
  -10.2117   -4.5879   -2.7892 H   0  0  0  0  0  0  0  0  0  0  0  0
   -8.8584   -4.6938   -1.6630 H   0  0  0  0  0  0  0  0  0  0  0  0
   -8.8731   -2.3701   -2.0981 H   0  0  0  0  0  0  0  0  0  0  0  0
  -11.9386   -2.3695   -1.7311 H   0  0  0  0  0  0  0  0  0  0  0  0
   -9.9636   -0.1600   -2.4542 H   0  0  0  0  0  0  0  0  0  0  0  0
  -11.8999    1.2987   -3.0698 H   0  0  0  0  0  0  0  0  0  0  0  0
  -12.9459   -0.1238   -3.1066 H   0  0  0  0  0  0  0  0  0  0  0  0
  -11.5851    0.0137   -4.2416 H   0  0  0  0  0  0  0  0  0  0  0  0
  -13.1665   -0.8750   -0.7970 H   0  0  0  0  0  0  0  0  0  0  0  0
  -12.5923    1.2028    1.2132 H   0  0  0  0  0  0  0  0  0  0  0  0
  -12.7980   -0.4232    3.0659 H   0  0  0  0  0  0  0  0  0  0  0  0
  -11.4042   -0.8093    2.0517 H   0  0  0  0  0  0  0  0  0  0  0  0
  -12.8824   -1.7629    1.9089 H   0  0  0  0  0  0  0  0  0  0  0  0
  -14.8865    0.1846    2.0826 H   0  0  0  0  0  0  0  0  0  0  0  0
  -16.9717    1.3183    1.7569 H   0  0  0  0  0  0  0  0  0  0  0  0
  -18.1078    3.3274    0.8971 H   0  0  0  0  0  0  0  0  0  0  0  0
  -17.0513    4.6998   -0.8764 H   0  0  0  0  0  0  0  0  0  0  0  0
  -14.8426    4.0459   -1.7943 H   0  0  0  0  0  0  0  0  0  0  0  0
  -13.6831    2.0586   -0.9545 H   0  0  0  0  0  0  0  0  0  0  0  0
  -15.9565   -0.6055   -0.0365 H   0  0  0  0  0  0  0  0  0  0  0  0
  -12.4685   -3.9780   -3.4005 H   0  0  0  0  0  0  0  0  0  0  0  0
  -12.2941   -3.3275   -5.0436 H   0  0  0  0  0  0  0  0  0  0  0  0
  -13.1805   -2.3912   -3.8211 H   0  0  0  0  0  0  0  0  0  0  0  0
   -5.0074   -3.1993    0.6813 H   0  0  0  0  0  0  0  0  0  0  0  0
   -6.6828   -3.7780    0.3973 H   0  0  0  0  0  0  0  0  0  0  0  0
   -5.4109   -4.0809   -0.8002 H   0  0  0  0  0  0  0  0  0  0  0  0
   -2.6711   -1.2831    0.1759 H   0  0  0  0  0  0  0  0  0  0  0  0
   -2.5337    0.2584   -0.7218 H   0  0  0  0  0  0  0  0  0  0  0  0
   -3.6308   -1.0295   -1.2690 H   0  0  0  0  0  0  0  0  0  0  0  0
   -2.3517    1.7136    1.2253 H   0  0  0  0  0  0  0  0  0  0  0  0
   -1.3859    2.1753    3.4150 H   0  0  0  0  0  0  0  0  0  0  0  0
   -3.7307    0.6873    4.6895 H   0  0  0  0  0  0  0  0  0  0  0  0
   -2.5225    1.6722    5.5160 H   0  0  0  0  0  0  0  0  0  0  0  0
   -2.0330    0.1826    4.7080 H   0  0  0  0  0  0  0  0  0  0  0  0
   -3.0902    3.6988    2.4117 H   0  0  0  0  0  0  0  0  0  0  0  0
   -4.3420    2.9295    3.4065 H   0  0  0  0  0  0  0  0  0  0  0  0
   -2.9995    3.7779    4.1748 H   0  0  0  0  0  0  0  0  0  0  0  0
   -1.6683   -0.8160    2.6465 H   0  0  0  0  0  0  0  0  0  0  0  0
    0.6697   -0.8347    3.0794 H   0  0  0  0  0  0  0  0  0  0  0  0
   -0.1491   -2.5579    1.8832 H   0  0  0  0  0  0  0  0  0  0  0  0
    2.0737   -2.9520    2.9380 H   0  0  0  0  0  0  0  0  0  0  0  0
    2.8638   -2.6621    1.3733 H   0  0  0  0  0  0  0  0  0  0  0  0
    1.7654   -4.0368    1.5720 H   0  0  0  0  0  0  0  0  0  0  0  0
    0.1232   -3.2493   -0.3111 H   0  0  0  0  0  0  0  0  0  0  0  0
    1.4505   -2.1598   -0.6517 H   0  0  0  0  0  0  0  0  0  0  0  0
   -0.2004   -1.5243   -0.4565 H   0  0  0  0  0  0  0  0  0  0  0  0
    3.7073    0.8393    3.1643 H   0  0  0  0  0  0  0  0  0  0  0  0
    2.6128   -0.2690    4.0102 H   0  0  0  0  0  0  0  0  0  0  0  0
    2.0437    1.3632    3.5304 H   0  0  0  0  0  0  0  0  0  0  0  0
    2.2209    1.8346   -1.3531 H   0  0  0  0  0  0  0  0  0  0  0  0
    1.8213    0.3939   -2.2893 H   0  0  0  0  0  0  0  0  0  0  0  0
    3.8498    2.5410   -3.0524 H   0  0  0  0  0  0  0  0  0  0  0  0
    6.1608    2.4774   -3.7803 H   0  0  0  0  0  0  0  0  0  0  0  0
    6.6620   -1.3372   -1.8120 H   0  0  0  0  0  0  0  0  0  0  0  0
    4.3179   -1.2806   -1.1162 H   0  0  0  0  0  0  0  0  0  0  0  0
    8.5010   -0.2171   -2.6074 H   0  0  0  0  0  0  0  0  0  0  0  0
   10.5050    0.2801   -3.1283 H   0  0  0  0  0  0  0  0  0  0  0  0
   10.7153    2.5463   -5.1870 H   0  0  0  0  0  0  0  0  0  0  0  0
   10.8811    0.8313   -5.4683 H   0  0  0  0  0  0  0  0  0  0  0  0
   13.0137    1.8281   -5.5942 H   0  0  0  0  0  0  0  0  0  0  0  0
   12.8249    2.7344   -4.1081 H   0  0  0  0  0  0  0  0  0  0  0  0
   14.3682    0.6164   -4.1735 H   0  0  0  0  0  0  0  0  0  0  0  0
   12.8843   -0.3370   -4.0667 H   0  0  0  0  0  0  0  0  0  0  0  0
   13.3090    1.7907   -2.0679 H   0  0  0  0  0  0  0  0  0  0  0  0
   14.8117   -0.0454    0.2512 H   0  0  0  0  0  0  0  0  0  0  0  0
   13.5316    1.0683    0.0623 H   0  0  0  0  0  0  0  0  0  0  0  0
   10.4814    3.2284   -2.6296 H   0  0  0  0  0  0  0  0  0  0  0  0
   11.2951    3.5127   -0.1822 H   0  0  0  0  0  0  0  0  0  0  0  0
    9.3067    4.4944   -1.2770 H   0  0  0  0  0  0  0  0  0  0  0  0
    7.0502    4.3118   -0.3445 H   0  0  0  0  0  0  0  0  0  0  0  0
    7.5898    3.1437    0.8698 H   0  0  0  0  0  0  0  0  0  0  0  0
    7.6205    2.7210   -0.8525 H   0  0  0  0  0  0  0  0  0  0  0  0
   10.4043    5.6646    0.6634 H   0  0  0  0  0  0  0  0  0  0  0  0
    8.7006    6.0853    0.4415 H   0  0  0  0  0  0  0  0  0  0  0  0
    9.1728    4.9809    1.7380 H   0  0  0  0  0  0  0  0  0  0  0  0
    9.4032    2.0042    1.5468 H   0  0  0  0  0  0  0  0  0  0  0  0
   11.4204    1.8980    3.9167 H   0  0  0  0  0  0  0  0  0  0  0  0
   10.1288    0.8919    3.2554 H   0  0  0  0  0  0  0  0  0  0  0  0
   13.1140    0.1880    3.0733 H   0  0  0  0  0  0  0  0  0  0  0  0
   12.0455   -0.3722    4.3557 H   0  0  0  0  0  0  0  0  0  0  0  0
   10.5603   -1.4711    2.6994 H   0  0  0  0  0  0  0  0  0  0  0  0
   11.5897   -0.9410    1.3724 H   0  0  0  0  0  0  0  0  0  0  0  0
   12.6092   -2.6717    3.6905 H   0  0  0  0  0  0  0  0  0  0  0  0
   11.8838   -3.3529    2.2460 H   0  0  0  0  0  0  0  0  0  0  0  0
   13.6118   -2.4510    0.8008 H   0  0  0  0  0  0  0  0  0  0  0  0
   14.3090   -1.4890    2.1172 H   0  0  0  0  0  0  0  0  0  0  0  0
   17.0321   -5.0572    3.9176 H   0  0  0  0  0  0  0  0  0  0  0  0
   15.7572   -6.6273    2.1524 H   0  0  0  0  0  0  0  0  0  0  0  0
  1  2  1  0
  2  3  1  0
  3  4  1  0
  3  5  1  0
  5  6  1  0
  6  7  1  0
  7  8  1  0
  8  9  2  0
  8 10  1  0
 10 11  1  0
 11 12  1  0
 12 13  1  0
 13 14  1  0
 14 15  1  0
 15 16  1  0
 16 17  1  0
 16 18  1  0
 18 19  2  0
 18 20  1  0
 20 21  1  0
 21 22  1  0
 21 23  1  0
 23 24  1  0
 24 25  2  0
 25 26  1  0
 26 27  2  0
 27 28  1  0
 28 29  2  0
 23 30  1  0
 15 31  1  0
 31 32  1  0
  6 33  1  0
 33 34  1  0
  5 35  1  0
 35 36  1  0
 35 37  1  0
 37 38  2  0
 37 39  1  0
 39 40  1  0
 40 41  1  0
 40 42  1  0
 39 43  1  0
 43 44  1  0
 44 45  2  0
 44 46  1  0
 46 47  1  0
 47 48  1  0
 47 49  1  0
 46 50  1  0
 50 51  1  0
 50 52  1  0
 52 53  2  0
 52 54  1  0
 54 55  1  0
 55 56  1  0
 56 57  1  0
 57 58  2  0
 58 59  1  0
 59 60  2  0
 60 61  1  0
 59 62  1  0
 62 63  1  0
 63 64  2  0
 63 65  1  0
 65 66  1  0
 66 67  1  0
 67 68  1  0
 68 69  1  0
 69 70  1  0
 70 71  2  0
 70 72  1  0
 65 73  1  0
 73 74  1  0
 74 75  2  0
 74 76  1  0
 76 77  1  0
 77 78  1  0
 77 79  1  0
 76 80  1  0
 80 81  1  0
 81 82  2  0
 81 83  1  0
 83 84  1  0
 84 85  1  0
 85 86  1  0
 86 87  1  0
 87 88  1  0
 88 89  1  0
 89 90  2  0
 89 91  1  0
 91 92  2  0
 92 93  1  0
 93 94  2  0
 14 10  1  0
 29 24  1  0
 61 56  2  0
 93 88  1  0
  1 95  1  0
  1 96  1  0
  1 97  1  0
  2 98  1  0
  2 99  1  0
  3100  1  6
  4101  1  0
  4102  1  0
  4103  1  0
  5104  1  1
  6105  1  1
  7106  1  0
  7107  1  0
 11108  1  0
 11109  1  0
 12110  1  0
 12111  1  0
 13112  1  0
 13113  1  0
 14114  1  6
 15115  1  1
 16116  1  6
 17117  1  0
 17118  1  0
 17119  1  0
 20120  1  0
 21121  1  1
 22122  1  0
 22123  1  0
 22124  1  0
 23125  1  1
 25126  1  0
 26127  1  0
 27128  1  0
 28129  1  0
 29130  1  0
 30131  1  0
 32132  1  0
 32133  1  0
 32134  1  0
 34135  1  0
 34136  1  0
 34137  1  0
 36138  1  0
 36139  1  0
 36140  1  0
 39141  1  6
 40142  1  0
 41143  1  0
 41144  1  0
 41145  1  0
 42146  1  0
 42147  1  0
 42148  1  0
 43149  1  0
 46150  1  1
 47151  1  0
 48152  1  0
 48153  1  0
 48154  1  0
 49155  1  0
 49156  1  0
 49157  1  0
 51158  1  0
 51159  1  0
 51160  1  0
 55161  1  0
 55162  1  0
 57163  1  0
 58164  1  0
 60165  1  0
 61166  1  0
 62167  1  0
 65168  1  1
 66169  1  0
 66170  1  0
 67171  1  0
 67172  1  0
 68173  1  0
 68174  1  0
 69175  1  0
 72176  1  0
 72177  1  0
 73178  1  0
 76179  1  1
 77180  1  0
 78181  1  0
 78182  1  0
 78183  1  0
 79184  1  0
 79185  1  0
 79186  1  0
 80187  1  0
 83188  1  0
 83189  1  0
 84190  1  0
 84191  1  0
 85192  1  0
 85193  1  0
 86194  1  0
 86195  1  0
 87196  1  0
 87197  1  0
 91198  1  0
 92199  1  0
M  END
$$$$

     RDKit          3D

199202  0  0  0  0  0  0  0  0999 V2000
   -7.2951   -3.7286   -3.7115 C   0  0  0  0  0  0  0  0  0  0  0  0
   -6.7216   -2.3785   -4.1245 C   0  0  0  0  0  0  0  0  0  0  0  0
   -5.7037   -1.7229   -3.1558 C   0  0  2  0  0  0  0  0  0  0  0  0
   -4.7637   -2.7522   -2.5289 C   0  0  0  0  0  0  0  0  0  0  0  0
   -6.3276   -0.6519   -2.1913 C   0  0  1  0  0  0  0  0  0  0  0  0
   -7.5216   -1.0319   -1.2368 C   0  0  1  0  0  0  0  0  0  0  0  0
   -8.8803   -0.9434   -1.9630 C   0  0  0  0  0  0  0  0  0  0  0  0
   -9.9851   -0.2655   -1.1663 C   0  0  0  0  0  0  0  0  0  0  0  0
  -10.9194   -0.9269   -0.7078 O   0  0  0  0  0  0  0  0  0  0  0  0
   -9.9446    1.1067   -1.0313 N   0  0  0  0  0  0  0  0  0  0  0  0
   -8.8835    2.0060   -1.4533 C   0  0  0  0  0  0  0  0  0  0  0  0
   -9.3780    3.4056   -1.1311 C   0  0  0  0  0  0  0  0  0  0  0  0
  -10.3428    3.1736    0.0236 C   0  0  0  0  0  0  0  0  0  0  0  0
  -11.0070    1.8320   -0.3062 C   0  0  1  0  0  0  0  0  0  0  0  0
  -12.3291    1.9375   -1.1395 C   0  0  1  0  0  0  0  0  0  0  0  0
  -13.4621    2.6667   -0.3817 C   0  0  1  0  0  0  0  0  0  0  0  0
  -14.7541    2.7628   -1.2033 C   0  0  0  0  0  0  0  0  0  0  0  0
  -13.7095    2.0236    0.9709 C   0  0  0  0  0  0  0  0  0  0  0  0
  -13.2274    2.4982    1.9947 O   0  0  0  0  0  0  0  0  0  0  0  0
  -14.4359    0.8578    0.9533 N   0  0  0  0  0  0  0  0  0  0  0  0
  -14.6389    0.0470    2.1543 C   0  0  2  0  0  0  0  0  0  0  0  0
  -13.4872   -0.9551    2.2707 C   0  0  0  0  0  0  0  0  0  0  0  0
  -16.0073   -0.6867    2.1172 C   0  0  1  0  0  0  0  0  0  0  0  0
  -17.1885    0.2463    2.3011 C   0  0  0  0  0  0  0  0  0  0  0  0
  -17.6576    0.5242    3.5950 C   0  0  0  0  0  0  0  0  0  0  0  0
  -18.7353    1.3938    3.7915 C   0  0  0  0  0  0  0  0  0  0  0  0
  -19.3584    1.9941    2.7006 C   0  0  0  0  0  0  0  0  0  0  0  0
  -18.8993    1.7339    1.4113 C   0  0  0  0  0  0  0  0  0  0  0  0
  -17.8189    0.8693    1.2133 C   0  0  0  0  0  0  0  0  0  0  0  0
  -16.1374   -1.4250    0.8909 O   0  0  0  0  0  0  0  0  0  0  0  0
  -12.0859    2.6813   -2.3521 O   0  0  0  0  0  0  0  0  0  0  0  0
  -12.2333    1.8904   -3.5227 C   0  0  0  0  0  0  0  0  0  0  0  0
   -7.3545   -2.3564   -0.7182 O   0  0  0  0  0  0  0  0  0  0  0  0
   -7.8134   -2.4926    0.6244 C   0  0  0  0  0  0  0  0  0  0  0  0
   -5.2794    0.1943   -1.5183 N   0  0  0  0  0  0  0  0  0  0  0  0
   -5.0397    1.4867   -2.1572 C   0  0  0  0  0  0  0  0  0  0  0  0
   -4.5856   -0.2700   -0.3999 C   0  0  0  0  0  0  0  0  0  0  0  0
   -4.7528   -1.4096    0.0520 O   0  0  0  0  0  0  0  0  0  0  0  0
   -3.5805    0.6515    0.3456 C   0  0  1  0  0  0  0  0  0  0  0  0
   -4.1859    1.2592    1.6374 C   0  0  0  0  0  0  0  0  0  0  0  0
   -4.4869    0.2253    2.7280 C   0  0  0  0  0  0  0  0  0  0  0  0
   -5.4382    2.0888    1.3438 C   0  0  0  0  0  0  0  0  0  0  0  0
   -2.3719   -0.1409    0.6076 N   0  0  0  0  0  0  0  0  0  0  0  0
   -1.1585    0.4581    0.8562 C   0  0  0  0  0  0  0  0  0  0  0  0
   -1.1032    1.6837    1.0066 O   0  0  0  0  0  0  0  0  0  0  0  0
    0.0953   -0.4620    1.0616 C   0  0  1  0  0  0  0  0  0  0  0  0
    0.2757   -1.6908    0.1209 C   0  0  0  0  0  0  0  0  0  0  0  0
   -0.0385   -1.4328   -1.3520 C   0  0  0  0  0  0  0  0  0  0  0  0
   -0.4775   -2.9348    0.6126 C   0  0  0  0  0  0  0  0  0  0  0  0
    1.3532    0.3452    1.0712 N   0  0  0  0  0  0  0  0  0  0  0  0
    1.5387    1.4163    0.1070 C   0  0  0  0  0  0  0  0  0  0  0  0
    2.2886    0.2877    2.0920 C   0  0  0  0  0  0  0  0  0  0  0  0
    3.1448    1.1580    2.2599 O   0  0  0  0  0  0  0  0  0  0  0  0
    2.1982   -0.8465    2.8398 O   0  0  0  0  0  0  0  0  0  0  0  0
    3.2153   -0.9876    3.8459 C   0  0  0  0  0  0  0  0  0  0  0  0
    4.5514   -1.3749    3.2477 C   0  0  0  0  0  0  0  0  0  0  0  0
    5.6277   -0.4755    3.2652 C   0  0  0  0  0  0  0  0  0  0  0  0
    6.8398   -0.7832    2.6320 C   0  0  0  0  0  0  0  0  0  0  0  0
    6.9988   -1.9998    1.9748 C   0  0  0  0  0  0  0  0  0  0  0  0
    5.9390   -2.9201    1.9919 C   0  0  0  0  0  0  0  0  0  0  0  0
    4.7261   -2.6119    2.6203 C   0  0  0  0  0  0  0  0  0  0  0  0
    8.1407   -2.3467    1.2241 N   0  0  0  0  0  0  0  0  0  0  0  0
    9.2789   -1.5837    0.9994 C   0  0  0  0  0  0  0  0  0  0  0  0
    9.6122   -0.5600    1.5923 O   0  0  0  0  0  0  0  0  0  0  0  0
   10.1372   -2.1390   -0.1641 C   0  0  1  0  0  0  0  0  0  0  0  0
    9.3854   -2.0780   -1.5105 C   0  0  0  0  0  0  0  0  0  0  0  0
    8.8208   -0.6884   -1.8320 C   0  0  0  0  0  0  0  0  0  0  0  0
    8.2007   -0.6331   -3.2308 C   0  0  0  0  0  0  0  0  0  0  0  0
    7.7407    0.7075   -3.5432 N   0  0  0  0  0  0  0  0  0  0  0  0
    6.5807    1.1800   -2.9918 C   0  0  0  0  0  0  0  0  0  0  0  0
    5.7818    0.5301   -2.3348 O   0  0  0  0  0  0  0  0  0  0  0  0
    6.4131    2.5015   -3.2270 N   0  0  0  0  0  0  0  0  0  0  0  0
   11.4186   -1.4284   -0.2380 N   0  0  0  0  0  0  0  0  0  0  0  0
   12.5239   -2.0138   -0.8165 C   0  0  0  0  0  0  0  0  0  0  0  0
   12.4721   -3.1481   -1.2917 O   0  0  0  0  0  0  0  0  0  0  0  0
   13.7825   -1.1302   -0.9766 C   0  0  1  0  0  0  0  0  0  0  0  0
   13.8002   -0.3400   -2.3131 C   0  0  0  0  0  0  0  0  0  0  0  0
   13.8569   -1.2720   -3.5237 C   0  0  0  0  0  0  0  0  0  0  0  0
   12.6420    0.6451   -2.4662 C   0  0  0  0  0  0  0  0  0  0  0  0
   14.0020   -0.2378    0.1717 N   0  0  0  0  0  0  0  0  0  0  0  0
   15.2629    0.2633    0.4360 C   0  0  0  0  0  0  0  0  0  0  0  0
   16.2388   -0.0107   -0.2576 O   0  0  0  0  0  0  0  0  0  0  0  0
   15.3193    1.1677    1.6527 C   0  0  0  0  0  0  0  0  0  0  0  0
   16.6758    1.8487    1.8722 C   0  0  0  0  0  0  0  0  0  0  0  0
   17.6608    1.0620    2.7453 C   0  0  0  0  0  0  0  0  0  0  0  0
   18.2658   -0.1994    2.1243 C   0  0  0  0  0  0  0  0  0  0  0  0
   19.1737    0.0484    0.9120 C   0  0  0  0  0  0  0  0  0  0  0  0
   20.4326    0.6730    1.2701 N   0  0  0  0  0  0  0  0  0  0  0  0
   21.5025    0.0118    1.7797 C   0  0  0  0  0  0  0  0  0  0  0  0
   21.6275   -1.1712    2.0397 O   0  0  0  0  0  0  0  0  0  0  0  0
   22.5648    1.0018    1.9881 C   0  0  0  0  0  0  0  0  0  0  0  0
   22.0920    2.1889    1.6090 C   0  0  0  0  0  0  0  0  0  0  0  0
   20.7117    1.9946    1.1493 C   0  0  0  0  0  0  0  0  0  0  0  0
   20.0059    2.9013    0.7493 O   0  0  0  0  0  0  0  0  0  0  0  0
   -7.7862   -3.6922   -2.7389 H   0  0  0  0  0  0  0  0  0  0  0  0
   -8.0398   -4.0545   -4.4470 H   0  0  0  0  0  0  0  0  0  0  0  0
   -6.5190   -4.4996   -3.6780 H   0  0  0  0  0  0  0  0  0  0  0  0
   -7.5373   -1.6846   -4.3484 H   0  0  0  0  0  0  0  0  0  0  0  0
   -6.2102   -2.5370   -5.0839 H   0  0  0  0  0  0  0  0  0  0  0  0
   -5.0536   -1.1316   -3.8184 H   0  0  0  0  0  0  0  0  0  0  0  0
   -4.4005   -3.4558   -3.2879 H   0  0  0  0  0  0  0  0  0  0  0  0
   -5.2466   -3.3343   -1.7411 H   0  0  0  0  0  0  0  0  0  0  0  0
   -3.8704   -2.2719   -2.1182 H   0  0  0  0  0  0  0  0  0  0  0  0
   -6.7841    0.0706   -2.8818 H   0  0  0  0  0  0  0  0  0  0  0  0
   -7.5092   -0.3227   -0.3974 H   0  0  0  0  0  0  0  0  0  0  0  0
   -8.8131   -0.3916   -2.9089 H   0  0  0  0  0  0  0  0  0  0  0  0
   -9.2462   -1.9453   -2.2225 H   0  0  0  0  0  0  0  0  0  0  0  0
   -7.9916    1.7763   -0.8681 H   0  0  0  0  0  0  0  0  0  0  0  0
   -8.6609    1.8753   -2.5152 H   0  0  0  0  0  0  0  0  0  0  0  0
   -9.8970    3.8368   -1.9945 H   0  0  0  0  0  0  0  0  0  0  0  0
   -8.5604    4.0852   -0.8685 H   0  0  0  0  0  0  0  0  0  0  0  0
   -9.7660    3.0666    0.9514 H   0  0  0  0  0  0  0  0  0  0  0  0
  -11.0327    4.0080    0.1638 H   0  0  0  0  0  0  0  0  0  0  0  0
  -11.2126    1.2790    0.6185 H   0  0  0  0  0  0  0  0  0  0  0  0
  -12.6714    0.9231   -1.3830 H   0  0  0  0  0  0  0  0  0  0  0  0
  -13.1704    3.7066   -0.1883 H   0  0  0  0  0  0  0  0  0  0  0  0
  -14.6243    3.4350   -2.0582 H   0  0  0  0  0  0  0  0  0  0  0  0
  -15.0632    1.7876   -1.5934 H   0  0  0  0  0  0  0  0  0  0  0  0
  -15.5780    3.1548   -0.5958 H   0  0  0  0  0  0  0  0  0  0  0  0
  -14.6426    0.3910    0.0784 H   0  0  0  0  0  0  0  0  0  0  0  0
  -14.6051    0.7034    3.0336 H   0  0  0  0  0  0  0  0  0  0  0  0
  -13.5939   -1.5819    3.1621 H   0  0  0  0  0  0  0  0  0  0  0  0
  -12.5253   -0.4389    2.3445 H   0  0  0  0  0  0  0  0  0  0  0  0
  -13.4376   -1.6098    1.3951 H   0  0  0  0  0  0  0  0  0  0  0  0
  -16.0360   -1.4329    2.9227 H   0  0  0  0  0  0  0  0  0  0  0  0
  -17.1848    0.0715    4.4622 H   0  0  0  0  0  0  0  0  0  0  0  0
  -19.0844    1.6064    4.7988 H   0  0  0  0  0  0  0  0  0  0  0  0
  -20.1958    2.6697    2.8563 H   0  0  0  0  0  0  0  0  0  0  0  0
  -19.3793    2.2085    0.5584 H   0  0  0  0  0  0  0  0  0  0  0  0
  -17.4668    0.6921    0.1977 H   0  0  0  0  0  0  0  0  0  0  0  0
  -17.0492   -1.7644    0.8775 H   0  0  0  0  0  0  0  0  0  0  0  0
  -11.5237    1.0587   -3.5245 H   0  0  0  0  0  0  0  0  0  0  0  0
  -13.2579    1.5149   -3.6029 H   0  0  0  0  0  0  0  0  0  0  0  0
  -12.0298    2.5249   -4.3895 H   0  0  0  0  0  0  0  0  0  0  0  0
   -7.2713   -1.8116    1.2871 H   0  0  0  0  0  0  0  0  0  0  0  0
   -7.6178   -3.5182    0.9496 H   0  0  0  0  0  0  0  0  0  0  0  0
   -8.8883   -2.3046    0.6872 H   0  0  0  0  0  0  0  0  0  0  0  0
   -4.1523    2.0066   -1.8143 H   0  0  0  0  0  0  0  0  0  0  0  0
   -4.9330    1.3364   -3.2381 H   0  0  0  0  0  0  0  0  0  0  0  0
   -5.9056    2.1270   -1.9727 H   0  0  0  0  0  0  0  0  0  0  0  0
   -3.2425    1.4707   -0.2877 H   0  0  0  0  0  0  0  0  0  0  0  0
   -3.4426    1.9463    2.0588 H   0  0  0  0  0  0  0  0  0  0  0  0
   -3.5843   -0.3282    2.9998 H   0  0  0  0  0  0  0  0  0  0  0  0
   -4.8375    0.7264    3.6400 H   0  0  0  0  0  0  0  0  0  0  0  0
   -5.2529   -0.4899    2.4191 H   0  0  0  0  0  0  0  0  0  0  0  0
   -5.2458    2.8306    0.5622 H   0  0  0  0  0  0  0  0  0  0  0  0
   -6.2757    1.4609    1.0257 H   0  0  0  0  0  0  0  0  0  0  0  0
   -5.7585    2.6314    2.2432 H   0  0  0  0  0  0  0  0  0  0  0  0
   -2.5096   -1.1396    0.7122 H   0  0  0  0  0  0  0  0  0  0  0  0
   -0.0299   -0.8439    2.0839 H   0  0  0  0  0  0  0  0  0  0  0  0
    1.3366   -1.9708    0.1649 H   0  0  0  0  0  0  0  0  0  0  0  0
    0.1555   -2.3339   -1.9462 H   0  0  0  0  0  0  0  0  0  0  0  0
   -1.0851   -1.1593   -1.5122 H   0  0  0  0  0  0  0  0  0  0  0  0
    0.5893   -0.6389   -1.7625 H   0  0  0  0  0  0  0  0  0  0  0  0
   -0.2861   -3.1192    1.6741 H   0  0  0  0  0  0  0  0  0  0  0  0
   -1.5563   -2.8648    0.4618 H   0  0  0  0  0  0  0  0  0  0  0  0
   -0.1349   -3.8205    0.0640 H   0  0  0  0  0  0  0  0  0  0  0  0
    1.2952    2.3751    0.5763 H   0  0  0  0  0  0  0  0  0  0  0  0
    2.5886    1.4481   -0.2029 H   0  0  0  0  0  0  0  0  0  0  0  0
    0.9225    1.2673   -0.7798 H   0  0  0  0  0  0  0  0  0  0  0  0
    3.2835   -0.0736    4.4523 H   0  0  0  0  0  0  0  0  0  0  0  0
    2.8869   -1.7820    4.5269 H   0  0  0  0  0  0  0  0  0  0  0  0
    5.5112    0.5034    3.7258 H   0  0  0  0  0  0  0  0  0  0  0  0
    7.6211   -0.0295    2.6404 H   0  0  0  0  0  0  0  0  0  0  0  0
    6.0281   -3.8804    1.4925 H   0  0  0  0  0  0  0  0  0  0  0  0
    3.9060   -3.3265    2.5870 H   0  0  0  0  0  0  0  0  0  0  0  0
    8.0767   -3.2274    0.7294 H   0  0  0  0  0  0  0  0  0  0  0  0
   10.3620   -3.1872    0.0659 H   0  0  0  0  0  0  0  0  0  0  0  0
    8.5532   -2.7934   -1.5017 H   0  0  0  0  0  0  0  0  0  0  0  0
   10.0533   -2.3903   -2.3189 H   0  0  0  0  0  0  0  0  0  0  0  0
    9.6076    0.0724   -1.7592 H   0  0  0  0  0  0  0  0  0  0  0  0
    8.0610   -0.4143   -1.0879 H   0  0  0  0  0  0  0  0  0  0  0  0
    7.3575   -1.3288   -3.2993 H   0  0  0  0  0  0  0  0  0  0  0  0
    8.9381   -0.9033   -3.9929 H   0  0  0  0  0  0  0  0  0  0  0  0
    8.4520    1.4135   -3.6571 H   0  0  0  0  0  0  0  0  0  0  0  0
    6.6827    2.8402   -4.1367 H   0  0  0  0  0  0  0  0  0  0  0  0
    5.5317    2.8607   -2.8828 H   0  0  0  0  0  0  0  0  0  0  0  0
   11.4126   -0.4460    0.0078 H   0  0  0  0  0  0  0  0  0  0  0  0
   14.6298   -1.8303   -0.9733 H   0  0  0  0  0  0  0  0  0  0  0  0
   14.7192    0.2559   -2.3389 H   0  0  0  0  0  0  0  0  0  0  0  0
   14.6925   -1.9733   -3.4381 H   0  0  0  0  0  0  0  0  0  0  0  0
   14.0029   -0.6955   -4.4448 H   0  0  0  0  0  0  0  0  0  0  0  0
   12.9340   -1.8510   -3.6409 H   0  0  0  0  0  0  0  0  0  0  0  0
   11.6895    0.1280   -2.6070 H   0  0  0  0  0  0  0  0  0  0  0  0
   12.7967    1.2822   -3.3447 H   0  0  0  0  0  0  0  0  0  0  0  0
   12.5522    1.3052   -1.5957 H   0  0  0  0  0  0  0  0  0  0  0  0
   13.2799   -0.1377    0.8770 H   0  0  0  0  0  0  0  0  0  0  0  0
   15.0150    0.5974    2.5376 H   0  0  0  0  0  0  0  0  0  0  0  0
   14.5680    1.9528    1.4867 H   0  0  0  0  0  0  0  0  0  0  0  0
   16.4792    2.7971    2.3928 H   0  0  0  0  0  0  0  0  0  0  0  0
   17.1339    2.1245    0.9162 H   0  0  0  0  0  0  0  0  0  0  0  0
   18.4744    1.7380    3.0379 H   0  0  0  0  0  0  0  0  0  0  0  0
   17.1574    0.7839    3.6801 H   0  0  0  0  0  0  0  0  0  0  0  0
   17.4623   -0.8863    1.8421 H   0  0  0  0  0  0  0  0  0  0  0  0
   18.8425   -0.7189    2.9016 H   0  0  0  0  0  0  0  0  0  0  0  0
   18.6803    0.6656    0.1589 H   0  0  0  0  0  0  0  0  0  0  0  0
   19.4094   -0.9201    0.4531 H   0  0  0  0  0  0  0  0  0  0  0  0
   23.5385    0.7575    2.3773 H   0  0  0  0  0  0  0  0  0  0  0  0
   22.5861    3.1444    1.6143 H   0  0  0  0  0  0  0  0  0  0  0  0
  1  2  1  0
  2  3  1  0
  3  4  1  0
  3  5  1  0
  5  6  1  0
  6  7  1  0
  7  8  1  0
  8  9  2  0
  8 10  1  0
 10 11  1  0
 11 12  1  0
 12 13  1  0
 13 14  1  0
 14 15  1  0
 15 16  1  0
 16 17  1  0
 16 18  1  0
 18 19  2  0
 18 20  1  0
 20 21  1  0
 21 22  1  0
 21 23  1  0
 23 24  1  0
 24 25  2  0
 25 26  1  0
 26 27  2  0
 27 28  1  0
 28 29  2  0
 23 30  1  0
 15 31  1  0
 31 32  1  0
  6 33  1  0
 33 34  1  0
  5 35  1  0
 35 36  1  0
 35 37  1  0
 37 38  2  0
 37 39  1  0
 39 40  1  0
 40 41  1  0
 40 42  1  0
 39 43  1  0
 43 44  1  0
 44 45  2  0
 44 46  1  0
 46 47  1  0
 47 48  1  0
 47 49  1  0
 46 50  1  0
 50 51  1  0
 50 52  1  0
 52 53  2  0
 52 54  1  0
 54 55  1  0
 55 56  1  0
 56 57  1  0
 57 58  2  0
 58 59  1  0
 59 60  2  0
 60 61  1  0
 59 62  1  0
 62 63  1  0
 63 64  2  0
 63 65  1  0
 65 66  1  0
 66 67  1  0
 67 68  1  0
 68 69  1  0
 69 70  1  0
 70 71  2  0
 70 72  1  0
 65 73  1  0
 73 74  1  0
 74 75  2  0
 74 76  1  0
 76 77  1  0
 77 78  1  0
 77 79  1  0
 76 80  1  0
 80 81  1  0
 81 82  2  0
 81 83  1  0
 83 84  1  0
 84 85  1  0
 85 86  1  0
 86 87  1  0
 87 88  1  0
 88 89  1  0
 89 90  2  0
 89 91  1  0
 91 92  2  0
 92 93  1  0
 93 94  2  0
 14 10  1  0
 29 24  1  0
 61 56  2  0
 93 88  1  0
  1 95  1  0
  1 96  1  0
  1 97  1  0
  2 98  1  0
  2 99  1  0
  3100  1  6
  4101  1  0
  4102  1  0
  4103  1  0
  5104  1  6
  6105  1  1
  7106  1  0
  7107  1  0
 11108  1  0
 11109  1  0
 12110  1  0
 12111  1  0
 13112  1  0
 13113  1  0
 14114  1  1
 15115  1  6
 16116  1  1
 17117  1  0
 17118  1  0
 17119  1  0
 20120  1  0
 21121  1  1
 22122  1  0
 22123  1  0
 22124  1  0
 23125  1  1
 25126  1  0
 26127  1  0
 27128  1  0
 28129  1  0
 29130  1  0
 30131  1  0
 32132  1  0
 32133  1  0
 32134  1  0
 34135  1  0
 34136  1  0
 34137  1  0
 36138  1  0
 36139  1  0
 36140  1  0
 39141  1  6
 40142  1  0
 41143  1  0
 41144  1  0
 41145  1  0
 42146  1  0
 42147  1  0
 42148  1  0
 43149  1  0
 46150  1  1
 47151  1  0
 48152  1  0
 48153  1  0
 48154  1  0
 49155  1  0
 49156  1  0
 49157  1  0
 51158  1  0
 51159  1  0
 51160  1  0
 55161  1  0
 55162  1  0
 57163  1  0
 58164  1  0
 60165  1  0
 61166  1  0
 62167  1  0
 65168  1  1
 66169  1  0
 66170  1  0
 67171  1  0
 67172  1  0
 68173  1  0
 68174  1  0
 69175  1  0
 72176  1  0
 72177  1  0
 73178  1  0
 76179  1  6
 77180  1  0
 78181  1  0
 78182  1  0
 78183  1  0
 79184  1  0
 79185  1  0
 79186  1  0
 80187  1  0
 83188  1  0
 83189  1  0
 84190  1  0
 84191  1  0
 85192  1  0
 85193  1  0
 86194  1  0
 86195  1  0
 87196  1  0
 87197  1  0
 91198  1  0
 92199  1  0
M  END
$$$$

     RDKit          3D

199202  0  0  0  0  0  0  0  0999 V2000
   -6.4473   -2.1069   -4.8387 C   0  0  0  0  0  0  0  0  0  0  0  0
   -6.4610   -2.7358   -3.4482 C   0  0  0  0  0  0  0  0  0  0  0  0
   -5.1404   -2.5691   -2.6768 C   0  0  2  0  0  0  0  0  0  0  0  0
   -3.9523   -3.1061   -3.4909 C   0  0  0  0  0  0  0  0  0  0  0  0
   -5.0941   -3.0981   -1.1975 C   0  0  1  0  0  0  0  0  0  0  0  0
   -6.1603   -2.5159   -0.2015 C   0  0  1  0  0  0  0  0  0  0  0  0
   -7.5700   -3.1106   -0.2446 C   0  0  0  0  0  0  0  0  0  0  0  0
   -8.5412   -2.2840    0.5836 C   0  0  0  0  0  0  0  0  0  0  0  0
   -8.9103   -2.6788    1.6920 O   0  0  0  0  0  0  0  0  0  0  0  0
   -8.9725   -1.0787    0.0756 N   0  0  0  0  0  0  0  0  0  0  0  0
   -8.7825   -0.5510   -1.2706 C   0  0  0  0  0  0  0  0  0  0  0  0
   -9.4811    0.8043   -1.2913 C   0  0  0  0  0  0  0  0  0  0  0  0
   -9.6168    1.1503    0.1835 C   0  0  0  0  0  0  0  0  0  0  0  0
   -9.8617   -0.1997    0.8562 C   0  0  1  0  0  0  0  0  0  0  0  0
  -11.3316   -0.7473    0.8792 C   0  0  1  0  0  0  0  0  0  0  0  0
  -12.3316    0.0502    1.7644 C   0  0  1  0  0  0  0  0  0  0  0  0
  -11.7532    0.2985    3.1640 C   0  0  0  0  0  0  0  0  0  0  0  0
  -12.8692    1.3411    1.1341 C   0  0  0  0  0  0  0  0  0  0  0  0
  -12.6596    1.6892   -0.0251 O   0  0  0  0  0  0  0  0  0  0  0  0
  -13.6701    2.0912    1.9807 N   0  0  0  0  0  0  0  0  0  0  0  0
  -14.3931    3.2617    1.4696 C   0  0  2  0  0  0  0  0  0  0  0  0
  -14.4993    4.3137    2.5724 C   0  0  0  0  0  0  0  0  0  0  0  0
  -15.7979    2.8676    0.9153 C   0  0  1  0  0  0  0  0  0  0  0  0
  -16.4320    3.9496    0.0618 C   0  0  0  0  0  0  0  0  0  0  0  0
  -17.7054    4.4421    0.3872 C   0  0  0  0  0  0  0  0  0  0  0  0
  -18.2956    5.4530   -0.3749 C   0  0  0  0  0  0  0  0  0  0  0  0
  -17.6274    5.9766   -1.4784 C   0  0  0  0  0  0  0  0  0  0  0  0
  -16.3693    5.4905   -1.8245 C   0  0  0  0  0  0  0  0  0  0  0  0
  -15.7779    4.4785   -1.0642 C   0  0  0  0  0  0  0  0  0  0  0  0
  -15.7403    1.6495    0.1647 O   0  0  0  0  0  0  0  0  0  0  0  0
  -11.7965   -0.9725   -0.4637 O   0  0  0  0  0  0  0  0  0  0  0  0
  -12.9870   -1.7394   -0.5614 C   0  0  0  0  0  0  0  0  0  0  0  0
   -5.6699   -2.7467    1.1383 O   0  0  0  0  0  0  0  0  0  0  0  0
   -5.2775   -1.5515    1.8059 C   0  0  0  0  0  0  0  0  0  0  0  0
   -4.8491   -4.5630   -1.0501 N   0  0  0  0  0  0  0  0  0  0  0  0
   -5.7211   -5.5050   -1.7394 C   0  0  0  0  0  0  0  0  0  0  0  0
   -3.7181   -5.1197   -0.4278 C   0  0  0  0  0  0  0  0  0  0  0  0
   -3.4009   -6.2937   -0.6548 O   0  0  0  0  0  0  0  0  0  0  0  0
   -2.7967   -4.2236    0.4463 C   0  0  1  0  0  0  0  0  0  0  0  0
   -2.1185   -4.9597    1.6365 C   0  0  0  0  0  0  0  0  0  0  0  0
   -1.1089   -6.0438    1.2473 C   0  0  0  0  0  0  0  0  0  0  0  0
   -3.1594   -5.5317    2.6058 C   0  0  0  0  0  0  0  0  0  0  0  0
   -1.7957   -3.5914   -0.4266 N   0  0  0  0  0  0  0  0  0  0  0  0
   -1.2232   -2.3807   -0.1072 C   0  0  0  0  0  0  0  0  0  0  0  0
   -1.5980   -1.7425    0.8794 O   0  0  0  0  0  0  0  0  0  0  0  0
   -0.1597   -1.7794   -1.0856 C   0  0  1  0  0  0  0  0  0  0  0  0
    0.2901   -2.6613   -2.2820 C   0  0  0  0  0  0  0  0  0  0  0  0
    1.1831   -3.8130   -1.7956 C   0  0  0  0  0  0  0  0  0  0  0  0
    1.0806   -1.8652   -3.3333 C   0  0  0  0  0  0  0  0  0  0  0  0
   -0.6760   -0.4486   -1.5001 N   0  0  0  0  0  0  0  0  0  0  0  0
   -1.9066   -0.3900   -2.2699 C   0  0  0  0  0  0  0  0  0  0  0  0
   -0.3511    0.6959   -0.7744 C   0  0  0  0  0  0  0  0  0  0  0  0
   -1.0122    1.7282   -0.8060 O   0  0  0  0  0  0  0  0  0  0  0  0
    0.7996    0.5546   -0.0660 O   0  0  0  0  0  0  0  0  0  0  0  0
    1.1610    1.6898    0.7257 C   0  0  0  0  0  0  0  0  0  0  0  0
    2.6621    1.7422    0.8974 C   0  0  0  0  0  0  0  0  0  0  0  0
    3.2167    2.1161    2.1269 C   0  0  0  0  0  0  0  0  0  0  0  0
    4.6005    2.2764    2.2681 C   0  0  0  0  0  0  0  0  0  0  0  0
    5.4508    2.0793    1.1808 C   0  0  0  0  0  0  0  0  0  0  0  0
    4.9000    1.6899   -0.0453 C   0  0  0  0  0  0  0  0  0  0  0  0
    3.5185    1.5259   -0.1879 C   0  0  0  0  0  0  0  0  0  0  0  0
    6.8418    2.2983    1.2148 N   0  0  0  0  0  0  0  0  0  0  0  0
    7.6162    2.7289    2.2803 C   0  0  0  0  0  0  0  0  0  0  0  0
    7.2096    2.9348    3.4218 O   0  0  0  0  0  0  0  0  0  0  0  0
    9.0696    3.0958    1.8575 C   0  0  1  0  0  0  0  0  0  0  0  0
    9.8833    3.5466    3.0868 C   0  0  0  0  0  0  0  0  0  0  0  0
   11.3276    3.9923    2.8180 C   0  0  0  0  0  0  0  0  0  0  0  0
   11.4753    5.3781    2.1882 C   0  0  0  0  0  0  0  0  0  0  0  0
   10.9101    5.5270    0.8639 N   0  0  0  0  0  0  0  0  0  0  0  0
   11.4032    4.8633   -0.2191 C   0  0  0  0  0  0  0  0  0  0  0  0
   12.2416    3.9729   -0.2030 O   0  0  0  0  0  0  0  0  0  0  0  0
   10.8183    5.2833   -1.3700 N   0  0  0  0  0  0  0  0  0  0  0  0
    9.7512    2.0030    1.1598 N   0  0  0  0  0  0  0  0  0  0  0  0
    9.6197    1.7564   -0.1893 C   0  0  0  0  0  0  0  0  0  0  0  0
    8.6851    2.2207   -0.8397 O   0  0  0  0  0  0  0  0  0  0  0  0
   10.6669    0.7629   -0.7409 C   0  0  1  0  0  0  0  0  0  0  0  0
   10.5899    0.5654   -2.2715 C   0  0  0  0  0  0  0  0  0  0  0  0
   11.4262   -0.6403   -2.7158 C   0  0  0  0  0  0  0  0  0  0  0  0
   11.0072    1.8006   -3.0737 C   0  0  0  0  0  0  0  0  0  0  0  0
   11.9820    1.2096   -0.2876 N   0  0  0  0  0  0  0  0  0  0  0  0
   12.8883    0.3880    0.3350 C   0  0  0  0  0  0  0  0  0  0  0  0
   12.6739   -0.7970    0.5593 O   0  0  0  0  0  0  0  0  0  0  0  0
   14.1597    1.1130    0.7317 C   0  0  0  0  0  0  0  0  0  0  0  0
   15.1899    0.1693    1.3450 C   0  0  0  0  0  0  0  0  0  0  0  0
   16.4689    0.9155    1.7308 C   0  0  0  0  0  0  0  0  0  0  0  0
   17.6061   -0.0212    2.1572 C   0  0  0  0  0  0  0  0  0  0  0  0
   18.5520   -0.4189    1.0173 C   0  0  0  0  0  0  0  0  0  0  0  0
   17.9402   -1.2664    0.0182 N   0  0  0  0  0  0  0  0  0  0  0  0
   17.4647   -0.8395   -1.1777 C   0  0  0  0  0  0  0  0  0  0  0  0
   17.4546    0.2843   -1.6457 O   0  0  0  0  0  0  0  0  0  0  0  0
   16.9130   -2.0124   -1.8666 C   0  0  0  0  0  0  0  0  0  0  0  0
   17.0731   -3.0660   -1.0650 C   0  0  0  0  0  0  0  0  0  0  0  0
   17.7355   -2.6000    0.1586 C   0  0  0  0  0  0  0  0  0  0  0  0
   18.0263   -3.3244    1.0923 O   0  0  0  0  0  0  0  0  0  0  0  0
   -5.7574   -2.6226   -5.5103 H   0  0  0  0  0  0  0  0  0  0  0  0
   -7.4455   -2.1656   -5.2845 H   0  0  0  0  0  0  0  0  0  0  0  0
   -6.1638   -1.0515   -4.7871 H   0  0  0  0  0  0  0  0  0  0  0  0
   -6.7337   -3.7885   -3.5516 H   0  0  0  0  0  0  0  0  0  0  0  0
   -7.2629   -2.2406   -2.9019 H   0  0  0  0  0  0  0  0  0  0  0  0
   -4.9854   -1.4820   -2.5919 H   0  0  0  0  0  0  0  0  0  0  0  0
   -3.7430   -2.4572   -4.3487 H   0  0  0  0  0  0  0  0  0  0  0  0
   -3.0399   -3.1440   -2.8920 H   0  0  0  0  0  0  0  0  0  0  0  0
   -4.1414   -4.1111   -3.8772 H   0  0  0  0  0  0  0  0  0  0  0  0
   -4.1706   -2.6321   -0.8402 H   0  0  0  0  0  0  0  0  0  0  0  0
   -6.2056   -1.4372   -0.3755 H   0  0  0  0  0  0  0  0  0  0  0  0
   -7.5708   -4.1182    0.1888 H   0  0  0  0  0  0  0  0  0  0  0  0
   -7.9774   -3.2030   -1.2503 H   0  0  0  0  0  0  0  0  0  0  0  0
   -7.7158   -0.4331   -1.4667 H   0  0  0  0  0  0  0  0  0  0  0  0
   -9.2117   -1.2397   -2.0030 H   0  0  0  0  0  0  0  0  0  0  0  0
  -10.4647    0.7288   -1.7650 H   0  0  0  0  0  0  0  0  0  0  0  0
   -8.9088    1.5546   -1.8462 H   0  0  0  0  0  0  0  0  0  0  0  0
  -10.3556    1.9200    0.3941 H   0  0  0  0  0  0  0  0  0  0  0  0
   -8.6540    1.5502    0.5334 H   0  0  0  0  0  0  0  0  0  0  0  0
   -9.4800   -0.1712    1.8829 H   0  0  0  0  0  0  0  0  0  0  0  0
  -11.2635   -1.7444    1.3354 H   0  0  0  0  0  0  0  0  0  0  0  0
  -13.2208   -0.5833    1.8927 H   0  0  0  0  0  0  0  0  0  0  0  0
  -11.2660   -0.6016    3.5549 H   0  0  0  0  0  0  0  0  0  0  0  0
  -12.5402    0.5663    3.8765 H   0  0  0  0  0  0  0  0  0  0  0  0
  -11.0264    1.1184    3.1602 H   0  0  0  0  0  0  0  0  0  0  0  0
  -14.1008    1.5986    2.7518 H   0  0  0  0  0  0  0  0  0  0  0  0
  -13.7812    3.6840    0.6656 H   0  0  0  0  0  0  0  0  0  0  0  0
  -15.0735    3.9340    3.4267 H   0  0  0  0  0  0  0  0  0  0  0  0
  -14.9821    5.2291    2.2090 H   0  0  0  0  0  0  0  0  0  0  0  0
  -13.5010    4.5854    2.9400 H   0  0  0  0  0  0  0  0  0  0  0  0
  -16.4494    2.6450    1.7697 H   0  0  0  0  0  0  0  0  0  0  0  0
  -18.2478    4.0446    1.2412 H   0  0  0  0  0  0  0  0  0  0  0  0
  -19.2805    5.8286   -0.1071 H   0  0  0  0  0  0  0  0  0  0  0  0
  -18.0877    6.7623   -2.0712 H   0  0  0  0  0  0  0  0  0  0  0  0
  -15.8481    5.8940   -2.6884 H   0  0  0  0  0  0  0  0  0  0  0  0
  -14.7953    4.1137   -1.3601 H   0  0  0  0  0  0  0  0  0  0  0  0
  -15.3587    1.8651   -0.7085 H   0  0  0  0  0  0  0  0  0  0  0  0
  -13.1264   -2.0188   -1.6100 H   0  0  0  0  0  0  0  0  0  0  0  0
  -12.9197   -2.6532    0.0363 H   0  0  0  0  0  0  0  0  0  0  0  0
  -13.8529   -1.1465   -0.2538 H   0  0  0  0  0  0  0  0  0  0  0  0
   -4.8881   -1.8211    2.7923 H   0  0  0  0  0  0  0  0  0  0  0  0
   -4.4892   -1.0399    1.2446 H   0  0  0  0  0  0  0  0  0  0  0  0
   -6.1399   -0.8914    1.9381 H   0  0  0  0  0  0  0  0  0  0  0  0
   -6.7547   -5.1544   -1.7344 H   0  0  0  0  0  0  0  0  0  0  0  0
   -5.3814   -5.6165   -2.7704 H   0  0  0  0  0  0  0  0  0  0  0  0
   -5.6947   -6.4872   -1.2604 H   0  0  0  0  0  0  0  0  0  0  0  0
   -3.3942   -3.4327    0.8968 H   0  0  0  0  0  0  0  0  0  0  0  0
   -1.5504   -4.2024    2.1963 H   0  0  0  0  0  0  0  0  0  0  0  0
   -0.5430   -6.3641    2.1311 H   0  0  0  0  0  0  0  0  0  0  0  0
   -0.3844   -5.6771    0.5159 H   0  0  0  0  0  0  0  0  0  0  0  0
   -1.5931   -6.9354    0.8383 H   0  0  0  0  0  0  0  0  0  0  0  0
   -2.6731   -5.9338    3.5017 H   0  0  0  0  0  0  0  0  0  0  0  0
   -3.8624   -4.7566    2.9282 H   0  0  0  0  0  0  0  0  0  0  0  0
   -3.7330   -6.3424    2.1459 H   0  0  0  0  0  0  0  0  0  0  0  0
   -1.4090   -4.1808   -1.1503 H   0  0  0  0  0  0  0  0  0  0  0  0
    0.7283   -1.6373   -0.4569 H   0  0  0  0  0  0  0  0  0  0  0  0
   -0.5882   -3.0861   -2.7801 H   0  0  0  0  0  0  0  0  0  0  0  0
    1.2715   -4.5785   -2.5719 H   0  0  0  0  0  0  0  0  0  0  0  0
    0.7906   -4.2920   -0.8984 H   0  0  0  0  0  0  0  0  0  0  0  0
    2.1918   -3.4574   -1.5540 H   0  0  0  0  0  0  0  0  0  0  0  0
    1.4667   -2.5356   -4.1085 H   0  0  0  0  0  0  0  0  0  0  0  0
    1.9337   -1.3455   -2.8800 H   0  0  0  0  0  0  0  0  0  0  0  0
    0.4544   -1.1203   -3.8326 H   0  0  0  0  0  0  0  0  0  0  0  0
   -1.8524   -1.0796   -3.1156 H   0  0  0  0  0  0  0  0  0  0  0  0
   -2.0713    0.6157   -2.6670 H   0  0  0  0  0  0  0  0  0  0  0  0
   -2.7516   -0.6466   -1.6241 H   0  0  0  0  0  0  0  0  0  0  0  0
    0.6710    1.5814    1.6996 H   0  0  0  0  0  0  0  0  0  0  0  0
    0.8459    2.6383    0.2717 H   0  0  0  0  0  0  0  0  0  0  0  0
    2.5791    2.3092    2.9843 H   0  0  0  0  0  0  0  0  0  0  0  0
    4.9791    2.5817    3.2385 H   0  0  0  0  0  0  0  0  0  0  0  0
    5.5382    1.5212   -0.9089 H   0  0  0  0  0  0  0  0  0  0  0  0
    3.1159    1.2466   -1.1594 H   0  0  0  0  0  0  0  0  0  0  0  0
    7.3301    2.2040    0.3238 H   0  0  0  0  0  0  0  0  0  0  0  0
    8.9621    3.9305    1.1568 H   0  0  0  0  0  0  0  0  0  0  0  0
    9.3557    4.3569    3.6057 H   0  0  0  0  0  0  0  0  0  0  0  0
    9.9243    2.7098    3.7973 H   0  0  0  0  0  0  0  0  0  0  0  0
   11.8635    3.2399    2.2305 H   0  0  0  0  0  0  0  0  0  0  0  0
   11.8428    4.0278    3.7893 H   0  0  0  0  0  0  0  0  0  0  0  0
   10.9911    6.1267    2.8262 H   0  0  0  0  0  0  0  0  0  0  0  0
   12.5394    5.6366    2.1232 H   0  0  0  0  0  0  0  0  0  0  0  0
   10.5708    6.4513    0.6377 H   0  0  0  0  0  0  0  0  0  0  0  0
   11.0696    4.7305   -2.1778 H   0  0  0  0  0  0  0  0  0  0  0  0
    9.8262    5.4687   -1.3098 H   0  0  0  0  0  0  0  0  0  0  0  0
   10.5443    1.5630    1.6177 H   0  0  0  0  0  0  0  0  0  0  0  0
   10.4353   -0.1990   -0.2614 H   0  0  0  0  0  0  0  0  0  0  0  0
    9.5460    0.3435   -2.5313 H   0  0  0  0  0  0  0  0  0  0  0  0
   12.4957   -0.4764   -2.5419 H   0  0  0  0  0  0  0  0  0  0  0  0
   11.2891   -0.8320   -3.7859 H   0  0  0  0  0  0  0  0  0  0  0  0
   11.1264   -1.5452   -2.1766 H   0  0  0  0  0  0  0  0  0  0  0  0
   10.8945    1.6135   -4.1462 H   0  0  0  0  0  0  0  0  0  0  0  0
   12.0532    2.0695   -2.8934 H   0  0  0  0  0  0  0  0  0  0  0  0
   10.3832    2.6620   -2.8284 H   0  0  0  0  0  0  0  0  0  0  0  0
   12.2100    2.2070   -0.3768 H   0  0  0  0  0  0  0  0  0  0  0  0
   13.8991    1.8997    1.4478 H   0  0  0  0  0  0  0  0  0  0  0  0
   14.5777    1.5859   -0.1644 H   0  0  0  0  0  0  0  0  0  0  0  0
   14.7681   -0.3126    2.2368 H   0  0  0  0  0  0  0  0  0  0  0  0
   15.4035   -0.6353    0.6363 H   0  0  0  0  0  0  0  0  0  0  0  0
   16.8010    1.5639    0.9116 H   0  0  0  0  0  0  0  0  0  0  0  0
   16.2303    1.5793    2.5731 H   0  0  0  0  0  0  0  0  0  0  0  0
   18.2109    0.5079    2.9064 H   0  0  0  0  0  0  0  0  0  0  0  0
   17.2039   -0.9115    2.6551 H   0  0  0  0  0  0  0  0  0  0  0  0
   18.9499    0.4793    0.5317 H   0  0  0  0  0  0  0  0  0  0  0  0
   19.3975   -0.9692    1.4453 H   0  0  0  0  0  0  0  0  0  0  0  0
   16.4580   -1.9705   -2.8407 H   0  0  0  0  0  0  0  0  0  0  0  0
   16.7820   -4.0879   -1.2289 H   0  0  0  0  0  0  0  0  0  0  0  0
  1  2  1  0
  2  3  1  0
  3  4  1  0
  3  5  1  0
  5  6  1  0
  6  7  1  0
  7  8  1  0
  8  9  2  0
  8 10  1  0
 10 11  1  0
 11 12  1  0
 12 13  1  0
 13 14  1  0
 14 15  1  0
 15 16  1  0
 16 17  1  0
 16 18  1  0
 18 19  2  0
 18 20  1  0
 20 21  1  0
 21 22  1  0
 21 23  1  0
 23 24  1  0
 24 25  2  0
 25 26  1  0
 26 27  2  0
 27 28  1  0
 28 29  2  0
 23 30  1  0
 15 31  1  0
 31 32  1  0
  6 33  1  0
 33 34  1  0
  5 35  1  0
 35 36  1  0
 35 37  1  0
 37 38  2  0
 37 39  1  0
 39 40  1  0
 40 41  1  0
 40 42  1  0
 39 43  1  0
 43 44  1  0
 44 45  2  0
 44 46  1  0
 46 47  1  0
 47 48  1  0
 47 49  1  0
 46 50  1  0
 50 51  1  0
 50 52  1  0
 52 53  2  0
 52 54  1  0
 54 55  1  0
 55 56  1  0
 56 57  1  0
 57 58  2  0
 58 59  1  0
 59 60  2  0
 60 61  1  0
 59 62  1  0
 62 63  1  0
 63 64  2  0
 63 65  1  0
 65 66  1  0
 66 67  1  0
 67 68  1  0
 68 69  1  0
 69 70  1  0
 70 71  2  0
 70 72  1  0
 65 73  1  0
 73 74  1  0
 74 75  2  0
 74 76  1  0
 76 77  1  0
 77 78  1  0
 77 79  1  0
 76 80  1  0
 80 81  1  0
 81 82  2  0
 81 83  1  0
 83 84  1  0
 84 85  1  0
 85 86  1  0
 86 87  1  0
 87 88  1  0
 88 89  1  0
 89 90  2  0
 89 91  1  0
 91 92  2  0
 92 93  1  0
 93 94  2  0
 14 10  1  0
 29 24  1  0
 61 56  2  0
 93 88  1  0
  1 95  1  0
  1 96  1  0
  1 97  1  0
  2 98  1  0
  2 99  1  0
  3100  1  1
  4101  1  0
  4102  1  0
  4103  1  0
  5104  1  1
  6105  1  6
  7106  1  0
  7107  1  0
 11108  1  0
 11109  1  0
 12110  1  0
 12111  1  0
 13112  1  0
 13113  1  0
 14114  1  1
 15115  1  1
 16116  1  1
 17117  1  0
 17118  1  0
 17119  1  0
 20120  1  0
 21121  1  6
 22122  1  0
 22123  1  0
 22124  1  0
 23125  1  1
 25126  1  0
 26127  1  0
 27128  1  0
 28129  1  0
 29130  1  0
 30131  1  0
 32132  1  0
 32133  1  0
 32134  1  0
 34135  1  0
 34136  1  0
 34137  1  0
 36138  1  0
 36139  1  0
 36140  1  0
 39141  1  1
 40142  1  0
 41143  1  0
 41144  1  0
 41145  1  0
 42146  1  0
 42147  1  0
 42148  1  0
 43149  1  0
 46150  1  1
 47151  1  0
 48152  1  0
 48153  1  0
 48154  1  0
 49155  1  0
 49156  1  0
 49157  1  0
 51158  1  0
 51159  1  0
 51160  1  0
 55161  1  0
 55162  1  0
 57163  1  0
 58164  1  0
 60165  1  0
 61166  1  0
 62167  1  0
 65168  1  6
 66169  1  0
 66170  1  0
 67171  1  0
 67172  1  0
 68173  1  0
 68174  1  0
 69175  1  0
 72176  1  0
 72177  1  0
 73178  1  0
 76179  1  1
 77180  1  0
 78181  1  0
 78182  1  0
 78183  1  0
 79184  1  0
 79185  1  0
 79186  1  0
 80187  1  0
 83188  1  0
 83189  1  0
 84190  1  0
 84191  1  0
 85192  1  0
 85193  1  0
 86194  1  0
 86195  1  0
 87196  1  0
 87197  1  0
 91198  1  0
 92199  1  0
M  END
$$$$

     RDKit          3D

199202  0  0  0  0  0  0  0  0999 V2000
   -7.6609   -5.3586    2.3670 C   0  0  0  0  0  0  0  0  0  0  0  0
   -7.5527   -4.2152    1.3662 C   0  0  0  0  0  0  0  0  0  0  0  0
   -6.4690   -3.1786    1.7227 C   0  0  2  0  0  0  0  0  0  0  0  0
   -6.7170   -2.5405    3.0907 C   0  0  0  0  0  0  0  0  0  0  0  0
   -6.2179   -2.1801    0.5428 C   0  0  1  0  0  0  0  0  0  0  0  0
   -7.4837   -1.5339   -0.1496 C   0  0  1  0  0  0  0  0  0  0  0  0
   -8.4962   -0.7598    0.7310 C   0  0  0  0  0  0  0  0  0  0  0  0
   -9.5626   -0.0871   -0.1399 C   0  0  0  0  0  0  0  0  0  0  0  0
   -9.3250    1.0146   -0.6605 O   0  0  0  0  0  0  0  0  0  0  0  0
  -10.7346   -0.7690   -0.4383 N   0  0  0  0  0  0  0  0  0  0  0  0
  -11.0772   -2.1157    0.0178 C   0  0  0  0  0  0  0  0  0  0  0  0
  -12.0899   -2.6384   -0.9920 C   0  0  0  0  0  0  0  0  0  0  0  0
  -11.7544   -1.8394   -2.2433 C   0  0  0  0  0  0  0  0  0  0  0  0
  -11.4680   -0.4364   -1.6812 C   0  0  1  0  0  0  0  0  0  0  0  0
  -12.7806    0.3771   -1.4639 C   0  0  1  0  0  0  0  0  0  0  0  0
  -12.5413    1.8672   -1.0880 C   0  0  1  0  0  0  0  0  0  0  0  0
  -11.8486    2.6821   -2.1837 C   0  0  0  0  0  0  0  0  0  0  0  0
  -13.8781    2.5571   -0.8035 C   0  0  0  0  0  0  0  0  0  0  0  0
  -14.6813    2.8659   -1.6829 O   0  0  0  0  0  0  0  0  0  0  0  0
  -14.1908    2.7585    0.5347 N   0  0  0  0  0  0  0  0  0  0  0  0
  -15.2902    3.6983    0.8700 C   0  0  2  0  0  0  0  0  0  0  0  0
  -15.0277    4.2953    2.2590 C   0  0  0  0  0  0  0  0  0  0  0  0
  -16.7221    3.0550    0.8117 C   0  0  1  0  0  0  0  0  0  0  0  0
  -17.8162    4.1095    0.8306 C   0  0  0  0  0  0  0  0  0  0  0  0
  -18.0033    4.9650   -0.2718 C   0  0  0  0  0  0  0  0  0  0  0  0
  -18.9736    5.9616   -0.2413 C   0  0  0  0  0  0  0  0  0  0  0  0
  -19.7670    6.1251    0.8884 C   0  0  0  0  0  0  0  0  0  0  0  0
  -19.6132    5.2693    1.9805 C   0  0  0  0  0  0  0  0  0  0  0  0
  -18.6451    4.2639    1.9489 C   0  0  0  0  0  0  0  0  0  0  0  0
  -16.9468    2.2605   -0.3535 O   0  0  0  0  0  0  0  0  0  0  0  0
  -13.5152    0.3203   -2.7025 O   0  0  0  0  0  0  0  0  0  0  0  0
  -14.8421   -0.1691   -2.5545 C   0  0  0  0  0  0  0  0  0  0  0  0
   -6.9910   -0.6698   -1.1925 O   0  0  0  0  0  0  0  0  0  0  0  0
   -7.3728   -1.0753   -2.4945 C   0  0  0  0  0  0  0  0  0  0  0  0
   -5.0410   -1.2778    0.7302 N   0  0  0  0  0  0  0  0  0  0  0  0
   -5.2884    0.0387    1.2985 C   0  0  0  0  0  0  0  0  0  0  0  0
   -3.8313   -1.8312    1.1328 C   0  0  0  0  0  0  0  0  0  0  0  0
   -3.5576   -1.9710    2.3316 O   0  0  0  0  0  0  0  0  0  0  0  0
   -2.7488   -2.1847    0.0631 C   0  0  1  0  0  0  0  0  0  0  0  0
   -3.0164   -2.3470   -1.4460 C   0  0  0  0  0  0  0  0  0  0  0  0
   -3.5056   -1.1070   -2.1841 C   0  0  0  0  0  0  0  0  0  0  0  0
   -3.8911   -3.5733   -1.7591 C   0  0  0  0  0  0  0  0  0  0  0  0
   -1.5011   -1.4497    0.3204 N   0  0  0  0  0  0  0  0  0  0  0  0
   -1.3928   -0.0745    0.3483 C   0  0  0  0  0  0  0  0  0  0  0  0
   -2.3537    0.6602    0.1301 O   0  0  0  0  0  0  0  0  0  0  0  0
    0.0547    0.4788    0.5332 C   0  0  1  0  0  0  0  0  0  0  0  0
    0.1460    1.8983    1.1564 C   0  0  0  0  0  0  0  0  0  0  0  0
   -0.3389    2.9769    0.1759 C   0  0  0  0  0  0  0  0  0  0  0  0
   -0.5863    2.0703    2.4906 C   0  0  0  0  0  0  0  0  0  0  0  0
    1.0009   -0.4752    1.1638 N   0  0  0  0  0  0  0  0  0  0  0  0
    0.6263   -1.1276    2.4141 C   0  0  0  0  0  0  0  0  0  0  0  0
    1.7475   -1.2368    0.2685 C   0  0  0  0  0  0  0  0  0  0  0  0
    1.6210   -2.4478    0.1622 O   0  0  0  0  0  0  0  0  0  0  0  0
    2.5372   -0.4515   -0.5045 O   0  0  0  0  0  0  0  0  0  0  0  0
    3.3857   -1.1246   -1.4506 C   0  0  0  0  0  0  0  0  0  0  0  0
    4.7737   -1.2562   -0.8780 C   0  0  0  0  0  0  0  0  0  0  0  0
    5.8576   -0.5503   -1.4188 C   0  0  0  0  0  0  0  0  0  0  0  0
    7.1405   -0.6729   -0.8741 C   0  0  0  0  0  0  0  0  0  0  0  0
    7.3574   -1.4912    0.2369 C   0  0  0  0  0  0  0  0  0  0  0  0
    6.2765   -2.2000    0.7711 C   0  0  0  0  0  0  0  0  0  0  0  0
    5.0007   -2.0941    0.2201 C   0  0  0  0  0  0  0  0  0  0  0  0
    8.5952   -1.6521    0.8827 N   0  0  0  0  0  0  0  0  0  0  0  0
    9.8436   -1.1799    0.5058 C   0  0  0  0  0  0  0  0  0  0  0  0
   10.0775   -0.4122   -0.4191 O   0  0  0  0  0  0  0  0  0  0  0  0
   10.9876   -1.6891    1.4253 C   0  0  1  0  0  0  0  0  0  0  0  0
   10.9942   -3.2232    1.5656 C   0  0  0  0  0  0  0  0  0  0  0  0
   11.2728   -3.9627    0.2490 C   0  0  0  0  0  0  0  0  0  0  0  0
   10.8821   -5.4290    0.3757 C   0  0  0  0  0  0  0  0  0  0  0  0
   11.3038   -6.2161   -0.7626 N   0  0  0  0  0  0  0  0  0  0  0  0
   10.7238   -7.4268   -1.0137 C   0  0  0  0  0  0  0  0  0  0  0  0
    9.8295   -7.9498   -0.3726 O   0  0  0  0  0  0  0  0  0  0  0  0
   11.2637   -8.0347   -2.1016 N   0  0  0  0  0  0  0  0  0  0  0  0
   12.2617   -1.1932    0.9142 N   0  0  0  0  0  0  0  0  0  0  0  0
   13.4032   -1.1879    1.6936 C   0  0  0  0  0  0  0  0  0  0  0  0
   13.4216   -1.6682    2.8264 O   0  0  0  0  0  0  0  0  0  0  0  0
   14.6889   -0.7542    0.9579 C   0  0  1  0  0  0  0  0  0  0  0  0
   15.2146   -1.9253    0.0881 C   0  0  0  0  0  0  0  0  0  0  0  0
   15.5027   -3.1738    0.9333 C   0  0  0  0  0  0  0  0  0  0  0  0
   16.4917   -1.5349   -0.6632 C   0  0  0  0  0  0  0  0  0  0  0  0
   14.4164    0.4379    0.1341 N   0  0  0  0  0  0  0  0  0  0  0  0
   14.8416    1.6840    0.5398 C   0  0  0  0  0  0  0  0  0  0  0  0
   15.4156    1.8816    1.6072 O   0  0  0  0  0  0  0  0  0  0  0  0
   14.5206    2.7987   -0.4444 C   0  0  0  0  0  0  0  0  0  0  0  0
   15.5932    3.8982   -0.4365 C   0  0  0  0  0  0  0  0  0  0  0  0
   16.8670    3.4251   -1.1489 C   0  0  0  0  0  0  0  0  0  0  0  0
   18.0856    4.3282   -0.9395 C   0  0  0  0  0  0  0  0  0  0  0  0
   18.0351    5.6762   -1.6706 C   0  0  0  0  0  0  0  0  0  0  0  0
   17.4468    6.7494   -0.8914 N   0  0  0  0  0  0  0  0  0  0  0  0
   16.2997    7.4126   -1.2152 C   0  0  0  0  0  0  0  0  0  0  0  0
   15.4706    7.2018   -2.0674 O   0  0  0  0  0  0  0  0  0  0  0  0
   16.1627    8.5053   -0.2402 C   0  0  0  0  0  0  0  0  0  0  0  0
   17.1806    8.4284    0.6226 C   0  0  0  0  0  0  0  0  0  0  0  0
   18.0222    7.2996    0.2066 C   0  0  0  0  0  0  0  0  0  0  0  0
   19.0454    6.9789    0.7838 O   0  0  0  0  0  0  0  0  0  0  0  0
   -8.2363   -6.1860    1.9372 H   0  0  0  0  0  0  0  0  0  0  0  0
   -8.1753   -5.0395    3.2829 H   0  0  0  0  0  0  0  0  0  0  0  0
   -6.6689   -5.7432    2.6406 H   0  0  0  0  0  0  0  0  0  0  0  0
   -7.3157   -4.6456    0.3834 H   0  0  0  0  0  0  0  0  0  0  0  0
   -8.5345   -3.7402    1.2868 H   0  0  0  0  0  0  0  0  0  0  0  0
   -5.5406   -3.7563    1.8356 H   0  0  0  0  0  0  0  0  0  0  0  0
   -7.6586   -1.9825    3.1224 H   0  0  0  0  0  0  0  0  0  0  0  0
   -6.7613   -3.3082    3.8709 H   0  0  0  0  0  0  0  0  0  0  0  0
   -5.9051   -1.8671    3.3880 H   0  0  0  0  0  0  0  0  0  0  0  0
   -5.8498   -2.8432   -0.2466 H   0  0  0  0  0  0  0  0  0  0  0  0
   -8.0344   -2.3568   -0.6191 H   0  0  0  0  0  0  0  0  0  0  0  0
   -8.9750   -1.4225    1.4474 H   0  0  0  0  0  0  0  0  0  0  0  0
   -8.0142    0.0387    1.3017 H   0  0  0  0  0  0  0  0  0  0  0  0
  -10.1881   -2.7496    0.0169 H   0  0  0  0  0  0  0  0  0  0  0  0
  -11.4848   -2.0629    1.0332 H   0  0  0  0  0  0  0  0  0  0  0  0
  -13.1182   -2.4325   -0.6564 H   0  0  0  0  0  0  0  0  0  0  0  0
  -11.9968   -3.7171   -1.1436 H   0  0  0  0  0  0  0  0  0  0  0  0
  -10.8367   -2.2451   -2.6904 H   0  0  0  0  0  0  0  0  0  0  0  0
  -12.5407   -1.8876   -3.0024 H   0  0  0  0  0  0  0  0  0  0  0  0
  -10.8186    0.0852   -2.3920 H   0  0  0  0  0  0  0  0  0  0  0  0
  -13.3609   -0.0926   -0.6552 H   0  0  0  0  0  0  0  0  0  0  0  0
  -11.9241    1.9141   -0.1791 H   0  0  0  0  0  0  0  0  0  0  0  0
  -10.7793    2.4508   -2.2450 H   0  0  0  0  0  0  0  0  0  0  0  0
  -12.2847    2.4990   -3.1784 H   0  0  0  0  0  0  0  0  0  0  0  0
  -11.9429    3.7605   -1.9856 H   0  0  0  0  0  0  0  0  0  0  0  0
  -13.4222    2.6974    1.1896 H   0  0  0  0  0  0  0  0  0  0  0  0
  -15.2280    4.5138    0.1336 H   0  0  0  0  0  0  0  0  0  0  0  0
  -15.7550    5.0775    2.5110 H   0  0  0  0  0  0  0  0  0  0  0  0
  -15.0647    3.5264    3.0409 H   0  0  0  0  0  0  0  0  0  0  0  0
  -14.0342    4.7566    2.2913 H   0  0  0  0  0  0  0  0  0  0  0  0
  -16.8480    2.3730    1.6627 H   0  0  0  0  0  0  0  0  0  0  0  0
  -17.3854    4.8496   -1.1633 H   0  0  0  0  0  0  0  0  0  0  0  0
  -19.0956    6.6319   -1.0946 H   0  0  0  0  0  0  0  0  0  0  0  0
  -20.5225    6.9180    0.9188 H   0  0  0  0  0  0  0  0  0  0  0  0
  -20.2577    5.3798    2.8483 H   0  0  0  0  0  0  0  0  0  0  0  0
  -18.5480    3.5943    2.8026 H   0  0  0  0  0  0  0  0  0  0  0  0
  -16.2214    2.4642   -0.9846 H   0  0  0  0  0  0  0  0  0  0  0  0
  -15.3523   -0.0557   -3.5171 H   0  0  0  0  0  0  0  0  0  0  0  0
  -14.8283   -1.2308   -2.2963 H   0  0  0  0  0  0  0  0  0  0  0  0
  -15.4026    0.3839   -1.7936 H   0  0  0  0  0  0  0  0  0  0  0  0
   -6.9637   -0.3572   -3.2204 H   0  0  0  0  0  0  0  0  0  0  0  0
   -8.4617   -1.0967   -2.5949 H   0  0  0  0  0  0  0  0  0  0  0  0
   -6.9578   -2.0618   -2.7219 H   0  0  0  0  0  0  0  0  0  0  0  0
   -5.7868    0.6648    0.5556 H   0  0  0  0  0  0  0  0  0  0  0  0
   -5.8953   -0.0374    2.2046 H   0  0  0  0  0  0  0  0  0  0  0  0
   -4.3469    0.5212    1.5653 H   0  0  0  0  0  0  0  0  0  0  0  0
   -2.4620   -3.2032    0.3876 H   0  0  0  0  0  0  0  0  0  0  0  0
   -2.0408   -2.5835   -1.8931 H   0  0  0  0  0  0  0  0  0  0  0  0
   -2.7160   -0.3478   -2.2191 H   0  0  0  0  0  0  0  0  0  0  0  0
   -4.3909   -0.6658   -1.7281 H   0  0  0  0  0  0  0  0  0  0  0  0
   -3.7475   -1.3602   -3.2226 H   0  0  0  0  0  0  0  0  0  0  0  0
   -4.1052   -4.1734   -0.8689 H   0  0  0  0  0  0  0  0  0  0  0  0
   -3.3538   -4.2390   -2.4537 H   0  0  0  0  0  0  0  0  0  0  0  0
   -4.8378   -3.3030   -2.2423 H   0  0  0  0  0  0  0  0  0  0  0  0
   -0.6478   -1.9969    0.3304 H   0  0  0  0  0  0  0  0  0  0  0  0
    0.3964    0.5934   -0.5079 H   0  0  0  0  0  0  0  0  0  0  0  0
    1.2070    2.1118    1.3395 H   0  0  0  0  0  0  0  0  0  0  0  0
    0.1505    2.8681   -0.7998 H   0  0  0  0  0  0  0  0  0  0  0  0
   -0.0977    3.9724    0.5593 H   0  0  0  0  0  0  0  0  0  0  0  0
   -1.4215    2.9422    0.0190 H   0  0  0  0  0  0  0  0  0  0  0  0
   -0.5801    3.1223    2.8009 H   0  0  0  0  0  0  0  0  0  0  0  0
   -0.0902    1.5071    3.2863 H   0  0  0  0  0  0  0  0  0  0  0  0
   -1.6305    1.7518    2.4334 H   0  0  0  0  0  0  0  0  0  0  0  0
    0.3210   -2.1656    2.2408 H   0  0  0  0  0  0  0  0  0  0  0  0
   -0.1835   -0.6033    2.9226 H   0  0  0  0  0  0  0  0  0  0  0  0
    1.5088   -1.1487    3.0572 H   0  0  0  0  0  0  0  0  0  0  0  0
    3.3927   -0.5034   -2.3546 H   0  0  0  0  0  0  0  0  0  0  0  0
    2.9960   -2.1043   -1.7527 H   0  0  0  0  0  0  0  0  0  0  0  0
    5.7135    0.1202   -2.2658 H   0  0  0  0  0  0  0  0  0  0  0  0
    7.9462   -0.0802   -1.3025 H   0  0  0  0  0  0  0  0  0  0  0  0
    6.4134   -2.8800    1.6129 H   0  0  0  0  0  0  0  0  0  0  0  0
    4.1919   -2.6866    0.6451 H   0  0  0  0  0  0  0  0  0  0  0  0
    8.5410   -2.1713    1.7611 H   0  0  0  0  0  0  0  0  0  0  0  0
   10.8283   -1.2420    2.4176 H   0  0  0  0  0  0  0  0  0  0  0  0
   11.7550   -3.5200    2.3006 H   0  0  0  0  0  0  0  0  0  0  0  0
   10.0393   -3.5597    1.9817 H   0  0  0  0  0  0  0  0  0  0  0  0
   10.7230   -3.5084   -0.5837 H   0  0  0  0  0  0  0  0  0  0  0  0
   12.3356   -3.8767    0.0038 H   0  0  0  0  0  0  0  0  0  0  0  0
   11.3515   -5.8702    1.2639 H   0  0  0  0  0  0  0  0  0  0  0  0
    9.7967   -5.5187    0.4825 H   0  0  0  0  0  0  0  0  0  0  0  0
   11.6743   -5.7465   -1.5752 H   0  0  0  0  0  0  0  0  0  0  0  0
   10.8925   -8.9675   -2.2331 H   0  0  0  0  0  0  0  0  0  0  0  0
   12.2695   -7.9903   -2.1787 H   0  0  0  0  0  0  0  0  0  0  0  0
   12.2009   -0.5298    0.1431 H   0  0  0  0  0  0  0  0  0  0  0  0
   15.4264   -0.5019    1.7276 H   0  0  0  0  0  0  0  0  0  0  0  0
   14.4577   -2.1928   -0.6578 H   0  0  0  0  0  0  0  0  0  0  0  0
   14.5764   -3.6098    1.3234 H   0  0  0  0  0  0  0  0  0  0  0  0
   16.1562   -2.9392    1.7822 H   0  0  0  0  0  0  0  0  0  0  0  0
   15.9916   -3.9479    0.3348 H   0  0  0  0  0  0  0  0  0  0  0  0
   17.3041   -1.2874    0.0310 H   0  0  0  0  0  0  0  0  0  0  0  0
   16.8297   -2.3611   -1.2998 H   0  0  0  0  0  0  0  0  0  0  0  0
   16.3219   -0.6751   -1.3177 H   0  0  0  0  0  0  0  0  0  0  0  0
   13.9896    0.3183   -0.7760 H   0  0  0  0  0  0  0  0  0  0  0  0
   14.4056    2.3963   -1.4598 H   0  0  0  0  0  0  0  0  0  0  0  0
   13.5598    3.2292   -0.1390 H   0  0  0  0  0  0  0  0  0  0  0  0
   15.1876    4.7750   -0.9504 H   0  0  0  0  0  0  0  0  0  0  0  0
   15.8254    4.2005    0.5879 H   0  0  0  0  0  0  0  0  0  0  0  0
   16.6660    3.3083   -2.2215 H   0  0  0  0  0  0  0  0  0  0  0  0
   17.1411    2.4288   -0.7763 H   0  0  0  0  0  0  0  0  0  0  0  0
   18.2810    4.4576    0.1301 H   0  0  0  0  0  0  0  0  0  0  0  0
   18.9434    3.7843   -1.3473 H   0  0  0  0  0  0  0  0  0  0  0  0
   17.5326    5.5963   -2.6397 H   0  0  0  0  0  0  0  0  0  0  0  0
   19.0691    5.9841   -1.8652 H   0  0  0  0  0  0  0  0  0  0  0  0
   15.3469    9.2080   -0.2478 H   0  0  0  0  0  0  0  0  0  0  0  0
   17.3940    9.0524    1.4689 H   0  0  0  0  0  0  0  0  0  0  0  0
  1  2  1  0
  2  3  1  0
  3  4  1  0
  3  5  1  0
  5  6  1  0
  6  7  1  0
  7  8  1  0
  8  9  2  0
  8 10  1  0
 10 11  1  0
 11 12  1  0
 12 13  1  0
 13 14  1  0
 14 15  1  0
 15 16  1  0
 16 17  1  0
 16 18  1  0
 18 19  2  0
 18 20  1  0
 20 21  1  0
 21 22  1  0
 21 23  1  0
 23 24  1  0
 24 25  2  0
 25 26  1  0
 26 27  2  0
 27 28  1  0
 28 29  2  0
 23 30  1  0
 15 31  1  0
 31 32  1  0
  6 33  1  0
 33 34  1  0
  5 35  1  0
 35 36  1  0
 35 37  1  0
 37 38  2  0
 37 39  1  0
 39 40  1  0
 40 41  1  0
 40 42  1  0
 39 43  1  0
 43 44  1  0
 44 45  2  0
 44 46  1  0
 46 47  1  0
 47 48  1  0
 47 49  1  0
 46 50  1  0
 50 51  1  0
 50 52  1  0
 52 53  2  0
 52 54  1  0
 54 55  1  0
 55 56  1  0
 56 57  1  0
 57 58  2  0
 58 59  1  0
 59 60  2  0
 60 61  1  0
 59 62  1  0
 62 63  1  0
 63 64  2  0
 63 65  1  0
 65 66  1  0
 66 67  1  0
 67 68  1  0
 68 69  1  0
 69 70  1  0
 70 71  2  0
 70 72  1  0
 65 73  1  0
 73 74  1  0
 74 75  2  0
 74 76  1  0
 76 77  1  0
 77 78  1  0
 77 79  1  0
 76 80  1  0
 80 81  1  0
 81 82  2  0
 81 83  1  0
 83 84  1  0
 84 85  1  0
 85 86  1  0
 86 87  1  0
 87 88  1  0
 88 89  1  0
 89 90  2  0
 89 91  1  0
 91 92  2  0
 92 93  1  0
 93 94  2  0
 14 10  1  0
 29 24  1  0
 61 56  2  0
 93 88  1  0
  1 95  1  0
  1 96  1  0
  1 97  1  0
  2 98  1  0
  2 99  1  0
  3100  1  1
  4101  1  0
  4102  1  0
  4103  1  0
  5104  1  6
  6105  1  6
  7106  1  0
  7107  1  0
 11108  1  0
 11109  1  0
 12110  1  0
 12111  1  0
 13112  1  0
 13113  1  0
 14114  1  6
 15115  1  1
 16116  1  1
 17117  1  0
 17118  1  0
 17119  1  0
 20120  1  0
 21121  1  6
 22122  1  0
 22123  1  0
 22124  1  0
 23125  1  1
 25126  1  0
 26127  1  0
 27128  1  0
 28129  1  0
 29130  1  0
 30131  1  0
 32132  1  0
 32133  1  0
 32134  1  0
 34135  1  0
 34136  1  0
 34137  1  0
 36138  1  0
 36139  1  0
 36140  1  0
 39141  1  1
 40142  1  0
 41143  1  0
 41144  1  0
 41145  1  0
 42146  1  0
 42147  1  0
 42148  1  0
 43149  1  0
 46150  1  6
 47151  1  0
 48152  1  0
 48153  1  0
 48154  1  0
 49155  1  0
 49156  1  0
 49157  1  0
 51158  1  0
 51159  1  0
 51160  1  0
 55161  1  0
 55162  1  0
 57163  1  0
 58164  1  0
 60165  1  0
 61166  1  0
 62167  1  0
 65168  1  1
 66169  1  0
 66170  1  0
 67171  1  0
 67172  1  0
 68173  1  0
 68174  1  0
 69175  1  0
 72176  1  0
 72177  1  0
 73178  1  0
 76179  1  1
 77180  1  0
 78181  1  0
 78182  1  0
 78183  1  0
 79184  1  0
 79185  1  0
 79186  1  0
 80187  1  0
 83188  1  0
 83189  1  0
 84190  1  0
 84191  1  0
 85192  1  0
 85193  1  0
 86194  1  0
 86195  1  0
 87196  1  0
 87197  1  0
 91198  1  0
 92199  1  0
M  END
$$$$

     RDKit          3D

199202  0  0  0  0  0  0  0  0999 V2000
   -6.5504   -2.5855    3.4359 C   0  0  0  0  0  0  0  0  0  0  0  0
   -5.3138   -1.8823    2.8880 C   0  0  0  0  0  0  0  0  0  0  0  0
   -4.7522   -2.4763    1.5781 C   0  0  2  0  0  0  0  0  0  0  0  0
   -3.2265   -2.2649    1.5460 C   0  0  0  0  0  0  0  0  0  0  0  0
   -5.4058   -2.1094    0.1888 C   0  0  1  0  0  0  0  0  0  0  0  0
   -6.9715   -2.1316    0.0905 C   0  0  1  0  0  0  0  0  0  0  0  0
   -7.6698   -0.8605    0.5719 C   0  0  0  0  0  0  0  0  0  0  0  0
   -9.1123   -1.1221    0.9950 C   0  0  0  0  0  0  0  0  0  0  0  0
   -9.7767   -2.0541    0.5404 O   0  0  0  0  0  0  0  0  0  0  0  0
   -9.6607   -0.2356    1.9095 N   0  0  0  0  0  0  0  0  0  0  0  0
   -8.9112    0.7432    2.6808 C   0  0  0  0  0  0  0  0  0  0  0  0
   -9.9378    1.4303    3.5609 C   0  0  0  0  0  0  0  0  0  0  0  0
  -10.9971    0.3591    3.7609 C   0  0  0  0  0  0  0  0  0  0  0  0
  -11.0215   -0.4298    2.4368 C   0  0  1  0  0  0  0  0  0  0  0  0
  -12.1262   -0.0060    1.4115 C   0  0  1  0  0  0  0  0  0  0  0  0
  -13.4784   -0.7336    1.6482 C   0  0  1  0  0  0  0  0  0  0  0  0
  -14.0203   -0.6140    3.0766 C   0  0  0  0  0  0  0  0  0  0  0  0
  -14.5685   -0.2610    0.6724 C   0  0  0  0  0  0  0  0  0  0  0  0
  -15.6002    0.2971    1.0505 O   0  0  0  0  0  0  0  0  0  0  0  0
  -14.3567   -0.5836   -0.6584 N   0  0  0  0  0  0  0  0  0  0  0  0
  -15.2994   -0.1127   -1.6834 C   0  0  2  0  0  0  0  0  0  0  0  0
  -15.3786   -1.1360   -2.8227 C   0  0  0  0  0  0  0  0  0  0  0  0
  -14.9467    1.3025   -2.2457 C   0  0  1  0  0  0  0  0  0  0  0  0
  -16.1544    2.1914   -2.4817 C   0  0  0  0  0  0  0  0  0  0  0  0
  -16.3954    2.7323   -3.7547 C   0  0  0  0  0  0  0  0  0  0  0  0
  -17.4795    3.5856   -3.9710 C   0  0  0  0  0  0  0  0  0  0  0  0
  -18.3336    3.9104   -2.9168 C   0  0  0  0  0  0  0  0  0  0  0  0
  -18.1046    3.3860   -1.6466 C   0  0  0  0  0  0  0  0  0  0  0  0
  -17.0254    2.5302   -1.4287 C   0  0  0  0  0  0  0  0  0  0  0  0
  -14.0116    1.9863   -1.4069 O   0  0  0  0  0  0  0  0  0  0  0  0
  -12.3449    1.4125    1.4492 O   0  0  0  0  0  0  0  0  0  0  0  0
  -11.5777    2.1132    0.4728 C   0  0  0  0  0  0  0  0  0  0  0  0
   -7.3459   -2.3163   -1.2987 O   0  0  0  0  0  0  0  0  0  0  0  0
   -7.6158   -3.6800   -1.6172 C   0  0  0  0  0  0  0  0  0  0  0  0
   -4.7571   -1.0056   -0.5863 N   0  0  0  0  0  0  0  0  0  0  0  0
   -4.3640   -1.3406   -1.9582 C   0  0  0  0  0  0  0  0  0  0  0  0
   -4.5794    0.2758   -0.0632 C   0  0  0  0  0  0  0  0  0  0  0  0
   -5.0921    0.6098    1.0059 O   0  0  0  0  0  0  0  0  0  0  0  0
   -3.7051    1.2936   -0.8721 C   0  0  1  0  0  0  0  0  0  0  0  0
   -3.6804    2.7044   -0.2200 C   0  0  0  0  0  0  0  0  0  0  0  0
   -3.2691    3.7811   -1.2294 C   0  0  0  0  0  0  0  0  0  0  0  0
   -2.7792    2.7916    1.0177 C   0  0  0  0  0  0  0  0  0  0  0  0
   -2.3544    0.7599   -1.0662 N   0  0  0  0  0  0  0  0  0  0  0  0
   -1.6538    0.8886   -2.2466 C   0  0  0  0  0  0  0  0  0  0  0  0
   -2.1557    1.3936   -3.2497 O   0  0  0  0  0  0  0  0  0  0  0  0
   -0.2317    0.2653   -2.2112 C   0  0  1  0  0  0  0  0  0  0  0  0
    0.5274    0.3347   -3.5646 C   0  0  0  0  0  0  0  0  0  0  0  0
   -0.1621   -0.5139   -4.6443 C   0  0  0  0  0  0  0  0  0  0  0  0
    1.9743   -0.1709   -3.4361 C   0  0  0  0  0  0  0  0  0  0  0  0
    0.5183    0.8823   -1.0914 N   0  0  0  0  0  0  0  0  0  0  0  0
    0.8866    2.2899   -1.1937 C   0  0  0  0  0  0  0  0  0  0  0  0
    0.9722    0.0773   -0.0587 C   0  0  0  0  0  0  0  0  0  0  0  0
    0.5898   -1.0761    0.1063 O   0  0  0  0  0  0  0  0  0  0  0  0
    1.8731    0.7068    0.7345 O   0  0  0  0  0  0  0  0  0  0  0  0
    2.3477   -0.0332    1.8655 C   0  0  0  0  0  0  0  0  0  0  0  0
    3.7433   -0.5618    1.6375 C   0  0  0  0  0  0  0  0  0  0  0  0
    4.0012   -1.9354    1.7049 C   0  0  0  0  0  0  0  0  0  0  0  0
    5.3086   -2.4309    1.5825 C   0  0  0  0  0  0  0  0  0  0  0  0
    6.3831   -1.5643    1.3963 C   0  0  0  0  0  0  0  0  0  0  0  0
    6.1262   -0.1901    1.2948 C   0  0  0  0  0  0  0  0  0  0  0  0
    4.8203    0.3096    1.4150 C   0  0  0  0  0  0  0  0  0  0  0  0
    7.7289   -1.9820    1.3066 N   0  0  0  0  0  0  0  0  0  0  0  0
    8.2425   -3.2565    1.4703 C   0  0  0  0  0  0  0  0  0  0  0  0
    7.5778   -4.2173    1.8619 O   0  0  0  0  0  0  0  0  0  0  0  0
    9.7991   -3.3869    1.2590 C   0  0  1  0  0  0  0  0  0  0  0  0
   10.1143   -4.9042    1.2374 C   0  0  0  0  0  0  0  0  0  0  0  0
   11.5377   -5.3824    0.9475 C   0  0  0  0  0  0  0  0  0  0  0  0
   12.6173   -4.9455    1.9355 C   0  0  0  0  0  0  0  0  0  0  0  0
   13.0045   -3.5505    1.9115 N   0  0  0  0  0  0  0  0  0  0  0  0
   13.4091   -2.9226    0.7719 C   0  0  0  0  0  0  0  0  0  0  0  0
   13.2010   -3.3226   -0.3632 O   0  0  0  0  0  0  0  0  0  0  0  0
   13.9818   -1.7195    1.0086 N   0  0  0  0  0  0  0  0  0  0  0  0
   10.2970   -2.7122    0.0472 N   0  0  0  0  0  0  0  0  0  0  0  0
   10.4264   -1.3415   -0.0330 C   0  0  0  0  0  0  0  0  0  0  0  0
    9.9396   -0.5859    0.8119 O   0  0  0  0  0  0  0  0  0  0  0  0
   11.1214   -0.8009   -1.3110 C   0  0  1  0  0  0  0  0  0  0  0  0
   10.1339   -0.7005   -2.5009 C   0  0  0  0  0  0  0  0  0  0  0  0
   10.8052   -0.0551   -3.7188 C   0  0  0  0  0  0  0  0  0  0  0  0
    9.5778   -2.0664   -2.9193 C   0  0  0  0  0  0  0  0  0  0  0  0
   11.6346    0.5264   -0.9484 N   0  0  0  0  0  0  0  0  0  0  0  0
   12.9833    0.7934   -0.8989 C   0  0  0  0  0  0  0  0  0  0  0  0
   13.8485   -0.0012   -1.2544 O   0  0  0  0  0  0  0  0  0  0  0  0
   13.3106    2.1622   -0.3245 C   0  0  0  0  0  0  0  0  0  0  0  0
   14.7430    2.5835   -0.6711 C   0  0  0  0  0  0  0  0  0  0  0  0
   15.1054    3.9797   -0.1614 C   0  0  0  0  0  0  0  0  0  0  0  0
   15.2736    4.0965    1.3585 C   0  0  0  0  0  0  0  0  0  0  0  0
   16.4431    3.2952    1.9475 C   0  0  0  0  0  0  0  0  0  0  0  0
   17.7289    3.6996    1.4141 N   0  0  0  0  0  0  0  0  0  0  0  0
   18.3668    4.8565    1.7209 C   0  0  0  0  0  0  0  0  0  0  0  0
   18.0202    5.7505    2.4731 O   0  0  0  0  0  0  0  0  0  0  0  0
   19.6285    4.8649    0.9751 C   0  0  0  0  0  0  0  0  0  0  0  0
   19.7013    3.7244    0.2878 C   0  0  0  0  0  0  0  0  0  0  0  0
   18.4928    2.9481    0.5816 C   0  0  0  0  0  0  0  0  0  0  0  0
   18.2862    1.8295    0.1518 O   0  0  0  0  0  0  0  0  0  0  0  0
   -6.3529   -3.6476    3.6157 H   0  0  0  0  0  0  0  0  0  0  0  0
   -6.8356   -2.1340    4.3935 H   0  0  0  0  0  0  0  0  0  0  0  0
   -7.4128   -2.5016    2.7786 H   0  0  0  0  0  0  0  0  0  0  0  0
   -4.5484   -1.9811    3.6734 H   0  0  0  0  0  0  0  0  0  0  0  0
   -5.5016   -0.8103    2.8051 H   0  0  0  0  0  0  0  0  0  0  0  0
   -4.8929   -3.5645    1.6739 H   0  0  0  0  0  0  0  0  0  0  0  0
   -2.9651   -1.2096    1.6570 H   0  0  0  0  0  0  0  0  0  0  0  0
   -2.7876   -2.6362    0.6170 H   0  0  0  0  0  0  0  0  0  0  0  0
   -2.7502   -2.8052    2.3722 H   0  0  0  0  0  0  0  0  0  0  0  0
   -5.1085   -2.9953   -0.3987 H   0  0  0  0  0  0  0  0  0  0  0  0
   -7.3312   -2.9916    0.6669 H   0  0  0  0  0  0  0  0  0  0  0  0
   -7.6938   -0.0953   -0.2133 H   0  0  0  0  0  0  0  0  0  0  0  0
   -7.1416   -0.4651    1.4349 H   0  0  0  0  0  0  0  0  0  0  0  0
   -8.3888    1.4429    2.0194 H   0  0  0  0  0  0  0  0  0  0  0  0
   -8.1752    0.2103    3.2952 H   0  0  0  0  0  0  0  0  0  0  0  0
  -10.3664    2.3004    3.0543 H   0  0  0  0  0  0  0  0  0  0  0  0
   -9.5086    1.7828    4.5045 H   0  0  0  0  0  0  0  0  0  0  0  0
  -11.9542    0.7894    4.0573 H   0  0  0  0  0  0  0  0  0  0  0  0
  -10.6779   -0.3113    4.5701 H   0  0  0  0  0  0  0  0  0  0  0  0
  -11.1346   -1.4985    2.6495 H   0  0  0  0  0  0  0  0  0  0  0  0
  -11.7923   -0.2909    0.4072 H   0  0  0  0  0  0  0  0  0  0  0  0
  -13.3299   -1.8063    1.4462 H   0  0  0  0  0  0  0  0  0  0  0  0
  -13.3563   -1.0933    3.8002 H   0  0  0  0  0  0  0  0  0  0  0  0
  -14.1535    0.4338    3.3603 H   0  0  0  0  0  0  0  0  0  0  0  0
  -14.9947   -1.1025    3.1734 H   0  0  0  0  0  0  0  0  0  0  0  0
  -13.3993   -0.7226   -0.9476 H   0  0  0  0  0  0  0  0  0  0  0  0
  -16.2940   -0.0930   -1.2258 H   0  0  0  0  0  0  0  0  0  0  0  0
  -14.4144   -1.2374   -3.3363 H   0  0  0  0  0  0  0  0  0  0  0  0
  -16.1319   -0.8389   -3.5604 H   0  0  0  0  0  0  0  0  0  0  0  0
  -15.6510   -2.1254   -2.4388 H   0  0  0  0  0  0  0  0  0  0  0  0
  -14.4087    1.1691   -3.1931 H   0  0  0  0  0  0  0  0  0  0  0  0
  -15.7306    2.5024   -4.5870 H   0  0  0  0  0  0  0  0  0  0  0  0
  -17.6547    4.0025   -4.9606 H   0  0  0  0  0  0  0  0  0  0  0  0
  -19.1728    4.5799   -3.0847 H   0  0  0  0  0  0  0  0  0  0  0  0
  -18.7642    3.6434   -0.8194 H   0  0  0  0  0  0  0  0  0  0  0  0
  -16.8564    2.1364   -0.4251 H   0  0  0  0  0  0  0  0  0  0  0  0
  -14.5006    2.6494   -0.8869 H   0  0  0  0  0  0  0  0  0  0  0  0
  -11.9110    3.1555    0.4637 H   0  0  0  0  0  0  0  0  0  0  0  0
  -10.5173    2.0955    0.7208 H   0  0  0  0  0  0  0  0  0  0  0  0
  -11.7174    1.6903   -0.5245 H   0  0  0  0  0  0  0  0  0  0  0  0
   -7.9009   -3.7325   -2.6720 H   0  0  0  0  0  0  0  0  0  0  0  0
   -6.7259   -4.2964   -1.4666 H   0  0  0  0  0  0  0  0  0  0  0  0
   -8.4469   -4.0593   -1.0156 H   0  0  0  0  0  0  0  0  0  0  0  0
   -5.0190   -2.1132   -2.3707 H   0  0  0  0  0  0  0  0  0  0  0  0
   -3.3396   -1.7208   -1.9387 H   0  0  0  0  0  0  0  0  0  0  0  0
   -4.4281   -0.4780   -2.6225 H   0  0  0  0  0  0  0  0  0  0  0  0
   -4.1966    1.4087   -1.8449 H   0  0  0  0  0  0  0  0  0  0  0  0
   -4.7029    2.9498    0.0940 H   0  0  0  0  0  0  0  0  0  0  0  0
   -3.8436    3.6987   -2.1586 H   0  0  0  0  0  0  0  0  0  0  0  0
   -3.4479    4.7813   -0.8159 H   0  0  0  0  0  0  0  0  0  0  0  0
   -2.2032    3.7168   -1.4778 H   0  0  0  0  0  0  0  0  0  0  0  0
   -1.7282    2.6045    0.7702 H   0  0  0  0  0  0  0  0  0  0  0  0
   -3.0796    2.0696    1.7835 H   0  0  0  0  0  0  0  0  0  0  0  0
   -2.8363    3.7924    1.4601 H   0  0  0  0  0  0  0  0  0  0  0  0
   -1.8934    0.3191   -0.2800 H   0  0  0  0  0  0  0  0  0  0  0  0
   -0.3927   -0.7984   -1.9870 H   0  0  0  0  0  0  0  0  0  0  0  0
    0.5604    1.3708   -3.9191 H   0  0  0  0  0  0  0  0  0  0  0  0
   -1.1754   -0.1660   -4.8563 H   0  0  0  0  0  0  0  0  0  0  0  0
   -0.2222   -1.5649   -4.3427 H   0  0  0  0  0  0  0  0  0  0  0  0
    0.3961   -0.4680   -5.5882 H   0  0  0  0  0  0  0  0  0  0  0  0
    2.4888   -0.1273   -4.4048 H   0  0  0  0  0  0  0  0  0  0  0  0
    2.5641    0.4315   -2.7372 H   0  0  0  0  0  0  0  0  0  0  0  0
    2.0015   -1.2102   -3.0874 H   0  0  0  0  0  0  0  0  0  0  0  0
    0.0785    2.8583   -1.6606 H   0  0  0  0  0  0  0  0  0  0  0  0
    1.0783    2.7175   -0.2057 H   0  0  0  0  0  0  0  0  0  0  0  0
    1.7923    2.3811   -1.7965 H   0  0  0  0  0  0  0  0  0  0  0  0
    2.3737    0.6594    2.7143 H   0  0  0  0  0  0  0  0  0  0  0  0
    1.6571   -0.8336    2.1569 H   0  0  0  0  0  0  0  0  0  0  0  0
    3.1882   -2.6390    1.8724 H   0  0  0  0  0  0  0  0  0  0  0  0
    5.4458   -3.5042    1.6551 H   0  0  0  0  0  0  0  0  0  0  0  0
    6.9373    0.5099    1.1206 H   0  0  0  0  0  0  0  0  0  0  0  0
    4.6510    1.3796    1.3368 H   0  0  0  0  0  0  0  0  0  0  0  0
    8.4249   -1.2459    1.2009 H   0  0  0  0  0  0  0  0  0  0  0  0
   10.2800   -2.9207    2.1274 H   0  0  0  0  0  0  0  0  0  0  0  0
    9.8021   -5.3418    2.1994 H   0  0  0  0  0  0  0  0  0  0  0  0
    9.4708   -5.3799    0.4792 H   0  0  0  0  0  0  0  0  0  0  0  0
   11.5110   -6.4799    0.9846 H   0  0  0  0  0  0  0  0  0  0  0  0
   11.8080   -5.1543   -0.0854 H   0  0  0  0  0  0  0  0  0  0  0  0
   13.5293   -5.5187    1.7381 H   0  0  0  0  0  0  0  0  0  0  0  0
   12.3049   -5.1704    2.9602 H   0  0  0  0  0  0  0  0  0  0  0  0
   13.3686   -3.1595    2.7679 H   0  0  0  0  0  0  0  0  0  0  0  0
   14.2956   -1.2659    0.1469 H   0  0  0  0  0  0  0  0  0  0  0  0
   14.6545   -1.6560    1.7599 H   0  0  0  0  0  0  0  0  0  0  0  0
   11.0386   -3.2022   -0.4531 H   0  0  0  0  0  0  0  0  0  0  0  0
   11.9542   -1.4614   -1.5745 H   0  0  0  0  0  0  0  0  0  0  0  0
    9.2852   -0.0690   -2.2115 H   0  0  0  0  0  0  0  0  0  0  0  0
   11.1215    0.9724   -3.5060 H   0  0  0  0  0  0  0  0  0  0  0  0
   11.6863   -0.6240   -4.0356 H   0  0  0  0  0  0  0  0  0  0  0  0
   10.1141   -0.0070   -4.5682 H   0  0  0  0  0  0  0  0  0  0  0  0
   10.3836   -2.7861   -3.0958 H   0  0  0  0  0  0  0  0  0  0  0  0
    8.9086   -2.4764   -2.1559 H   0  0  0  0  0  0  0  0  0  0  0  0
    8.9893   -1.9848   -3.8391 H   0  0  0  0  0  0  0  0  0  0  0  0
   11.0229    1.0849   -0.3635 H   0  0  0  0  0  0  0  0  0  0  0  0
   13.1785    2.1032    0.7620 H   0  0  0  0  0  0  0  0  0  0  0  0
   12.6003    2.8978   -0.7202 H   0  0  0  0  0  0  0  0  0  0  0  0
   14.8516    2.5792   -1.7629 H   0  0  0  0  0  0  0  0  0  0  0  0
   15.4575    1.8411   -0.2975 H   0  0  0  0  0  0  0  0  0  0  0  0
   16.0298    4.3020   -0.6540 H   0  0  0  0  0  0  0  0  0  0  0  0
   14.3300    4.6869   -0.4820 H   0  0  0  0  0  0  0  0  0  0  0  0
   14.3482    3.7923    1.8612 H   0  0  0  0  0  0  0  0  0  0  0  0
   15.4128    5.1589    1.5962 H   0  0  0  0  0  0  0  0  0  0  0  0
   16.4686    3.4613    3.0293 H   0  0  0  0  0  0  0  0  0  0  0  0
   16.2985    2.2228    1.7812 H   0  0  0  0  0  0  0  0  0  0  0  0
   20.3385    5.6739    1.0152 H   0  0  0  0  0  0  0  0  0  0  0  0
   20.4809    3.3810   -0.3702 H   0  0  0  0  0  0  0  0  0  0  0  0
  1  2  1  0
  2  3  1  0
  3  4  1  0
  3  5  1  0
  5  6  1  0
  6  7  1  0
  7  8  1  0
  8  9  2  0
  8 10  1  0
 10 11  1  0
 11 12  1  0
 12 13  1  0
 13 14  1  0
 14 15  1  0
 15 16  1  0
 16 17  1  0
 16 18  1  0
 18 19  2  0
 18 20  1  0
 20 21  1  0
 21 22  1  0
 21 23  1  0
 23 24  1  0
 24 25  2  0
 25 26  1  0
 26 27  2  0
 27 28  1  0
 28 29  2  0
 23 30  1  0
 15 31  1  0
 31 32  1  0
  6 33  1  0
 33 34  1  0
  5 35  1  0
 35 36  1  0
 35 37  1  0
 37 38  2  0
 37 39  1  0
 39 40  1  0
 40 41  1  0
 40 42  1  0
 39 43  1  0
 43 44  1  0
 44 45  2  0
 44 46  1  0
 46 47  1  0
 47 48  1  0
 47 49  1  0
 46 50  1  0
 50 51  1  0
 50 52  1  0
 52 53  2  0
 52 54  1  0
 54 55  1  0
 55 56  1  0
 56 57  1  0
 57 58  2  0
 58 59  1  0
 59 60  2  0
 60 61  1  0
 59 62  1  0
 62 63  1  0
 63 64  2  0
 63 65  1  0
 65 66  1  0
 66 67  1  0
 67 68  1  0
 68 69  1  0
 69 70  1  0
 70 71  2  0
 70 72  1  0
 65 73  1  0
 73 74  1  0
 74 75  2  0
 74 76  1  0
 76 77  1  0
 77 78  1  0
 77 79  1  0
 76 80  1  0
 80 81  1  0
 81 82  2  0
 81 83  1  0
 83 84  1  0
 84 85  1  0
 85 86  1  0
 86 87  1  0
 87 88  1  0
 88 89  1  0
 89 90  2  0
 89 91  1  0
 91 92  2  0
 92 93  1  0
 93 94  2  0
 14 10  1  0
 29 24  1  0
 61 56  2  0
 93 88  1  0
  1 95  1  0
  1 96  1  0
  1 97  1  0
  2 98  1  0
  2 99  1  0
  3100  1  1
  4101  1  0
  4102  1  0
  4103  1  0
  5104  1  6
  6105  1  1
  7106  1  0
  7107  1  0
 11108  1  0
 11109  1  0
 12110  1  0
 12111  1  0
 13112  1  0
 13113  1  0
 14114  1  1
 15115  1  6
 16116  1  6
 17117  1  0
 17118  1  0
 17119  1  0
 20120  1  0
 21121  1  1
 22122  1  0
 22123  1  0
 22124  1  0
 23125  1  6
 25126  1  0
 26127  1  0
 27128  1  0
 28129  1  0
 29130  1  0
 30131  1  0
 32132  1  0
 32133  1  0
 32134  1  0
 34135  1  0
 34136  1  0
 34137  1  0
 36138  1  0
 36139  1  0
 36140  1  0
 39141  1  6
 40142  1  0
 41143  1  0
 41144  1  0
 41145  1  0
 42146  1  0
 42147  1  0
 42148  1  0
 43149  1  0
 46150  1  1
 47151  1  0
 48152  1  0
 48153  1  0
 48154  1  0
 49155  1  0
 49156  1  0
 49157  1  0
 51158  1  0
 51159  1  0
 51160  1  0
 55161  1  0
 55162  1  0
 57163  1  0
 58164  1  0
 60165  1  0
 61166  1  0
 62167  1  0
 65168  1  1
 66169  1  0
 66170  1  0
 67171  1  0
 67172  1  0
 68173  1  0
 68174  1  0
 69175  1  0
 72176  1  0
 72177  1  0
 73178  1  0
 76179  1  6
 77180  1  0
 78181  1  0
 78182  1  0
 78183  1  0
 79184  1  0
 79185  1  0
 79186  1  0
 80187  1  0
 83188  1  0
 83189  1  0
 84190  1  0
 84191  1  0
 85192  1  0
 85193  1  0
 86194  1  0
 86195  1  0
 87196  1  0
 87197  1  0
 91198  1  0
 92199  1  0
M  END
$$$$

     RDKit          3D

199202  0  0  0  0  0  0  0  0999 V2000
   -5.7323    2.2091    1.0553 C   0  0  0  0  0  0  0  0  0  0  0  0
   -6.0552    1.7434   -0.3555 C   0  0  0  0  0  0  0  0  0  0  0  0
   -5.3336    0.4463   -0.7707 C   0  0  2  0  0  0  0  0  0  0  0  0
   -5.5829    0.1764   -2.2591 C   0  0  0  0  0  0  0  0  0  0  0  0
   -5.5795   -0.7816    0.1662 C   0  0  1  0  0  0  0  0  0  0  0  0
   -7.0520   -1.0911    0.6465 C   0  0  1  0  0  0  0  0  0  0  0  0
   -8.1510   -1.1599   -0.4229 C   0  0  0  0  0  0  0  0  0  0  0  0
   -9.5059   -1.4458    0.2180 C   0  0  0  0  0  0  0  0  0  0  0  0
   -9.9197   -2.6007    0.2799 O   0  0  0  0  0  0  0  0  0  0  0  0
  -10.2215   -0.3920    0.7609 N   0  0  0  0  0  0  0  0  0  0  0  0
   -9.8769    1.0205    0.6600 C   0  0  0  0  0  0  0  0  0  0  0  0
  -10.8056    1.7326    1.6261 C   0  0  0  0  0  0  0  0  0  0  0  0
  -11.0520    0.6635    2.6784 C   0  0  0  0  0  0  0  0  0  0  0  0
  -11.2083   -0.6212    1.8321 C   0  0  1  0  0  0  0  0  0  0  0  0
  -12.6951   -0.8215    1.3856 C   0  0  1  0  0  0  0  0  0  0  0  0
  -12.9492   -2.1434    0.6243 C   0  0  1  0  0  0  0  0  0  0  0  0
  -12.8813   -3.3837    1.5182 C   0  0  0  0  0  0  0  0  0  0  0  0
  -14.2953   -2.1060   -0.1010 C   0  0  0  0  0  0  0  0  0  0  0  0
  -15.2698   -2.7622    0.2387 O   0  0  0  0  0  0  0  0  0  0  0  0
  -14.3397   -1.2355   -1.1719 N   0  0  0  0  0  0  0  0  0  0  0  0
  -15.5138   -1.1779   -2.0566 C   0  0  2  0  0  0  0  0  0  0  0  0
  -15.4978   -2.3822   -3.0072 C   0  0  0  0  0  0  0  0  0  0  0  0
  -15.5332    0.1478   -2.8687 C   0  0  1  0  0  0  0  0  0  0  0  0
  -15.9777    1.4090   -2.1483 C   0  0  0  0  0  0  0  0  0  0  0  0
  -16.0804    1.5065   -0.7559 C   0  0  0  0  0  0  0  0  0  0  0  0
  -16.4696    2.7023   -0.1462 C   0  0  0  0  0  0  0  0  0  0  0  0
  -16.7630    3.8204   -0.9206 C   0  0  0  0  0  0  0  0  0  0  0  0
  -16.6753    3.7425   -2.3073 C   0  0  0  0  0  0  0  0  0  0  0  0
  -16.2880    2.5456   -2.9161 C   0  0  0  0  0  0  0  0  0  0  0  0
  -14.2240    0.3605   -3.4286 O   0  0  0  0  0  0  0  0  0  0  0  0
  -13.4557   -0.8000    2.6128 O   0  0  0  0  0  0  0  0  0  0  0  0
  -14.7336   -0.1953    2.5144 C   0  0  0  0  0  0  0  0  0  0  0  0
   -7.0070   -2.3260    1.3831 O   0  0  0  0  0  0  0  0  0  0  0  0
   -7.5242   -2.2449    2.7023 C   0  0  0  0  0  0  0  0  0  0  0  0
   -4.7613   -1.9660   -0.2562 N   0  0  0  0  0  0  0  0  0  0  0  0
   -5.3826   -2.9766   -1.1122 C   0  0  0  0  0  0  0  0  0  0  0  0
   -3.3978   -2.1206    0.0080 C   0  0  0  0  0  0  0  0  0  0  0  0
   -2.7321   -3.0271   -0.5120 O   0  0  0  0  0  0  0  0  0  0  0  0
   -2.6794   -1.1970    1.0311 C   0  0  1  0  0  0  0  0  0  0  0  0
   -2.5964   -1.8553    2.4318 C   0  0  0  0  0  0  0  0  0  0  0  0
   -3.9587   -2.2024    3.0264 C   0  0  0  0  0  0  0  0  0  0  0  0
   -1.8511   -0.9480    3.4197 C   0  0  0  0  0  0  0  0  0  0  0  0
   -1.3136   -1.0578    0.5137 N   0  0  0  0  0  0  0  0  0  0  0  0
   -0.6885    0.1512    0.2853 C   0  0  0  0  0  0  0  0  0  0  0  0
   -1.2509    1.2258    0.4723 O   0  0  0  0  0  0  0  0  0  0  0  0
    0.7980    0.0033   -0.1385 C   0  0  1  0  0  0  0  0  0  0  0  0
    1.0438   -0.3273   -1.6394 C   0  0  0  0  0  0  0  0  0  0  0  0
    0.1357   -1.4260   -2.1973 C   0  0  0  0  0  0  0  0  0  0  0  0
    2.5019   -0.7531   -1.8567 C   0  0  0  0  0  0  0  0  0  0  0  0
    1.5770    1.1431    0.3968 N   0  0  0  0  0  0  0  0  0  0  0  0
    2.2189    0.9385    1.6861 C   0  0  0  0  0  0  0  0  0  0  0  0
    1.6421    2.3576   -0.2740 C   0  0  0  0  0  0  0  0  0  0  0  0
    1.0745    2.6007   -1.3321 O   0  0  0  0  0  0  0  0  0  0  0  0
    2.5037    3.2339    0.3128 O   0  0  0  0  0  0  0  0  0  0  0  0
    3.0688    4.2467   -0.5402 C   0  0  0  0  0  0  0  0  0  0  0  0
    4.4468    3.7625   -0.9263 C   0  0  0  0  0  0  0  0  0  0  0  0
    4.5726    2.6500   -1.7741 C   0  0  0  0  0  0  0  0  0  0  0  0
    5.7995    2.0124   -1.9172 C   0  0  0  0  0  0  0  0  0  0  0  0
    6.9238    2.5168   -1.2646 C   0  0  0  0  0  0  0  0  0  0  0  0
    6.8471    3.7024   -0.5318 C   0  0  0  0  0  0  0  0  0  0  0  0
    5.6004    4.3121   -0.3477 C   0  0  0  0  0  0  0  0  0  0  0  0
    8.0995    1.7346   -1.2369 N   0  0  0  0  0  0  0  0  0  0  0  0
    8.1237    0.7169   -0.2901 C   0  0  0  0  0  0  0  0  0  0  0  0
    7.2144    0.4915    0.5110 O   0  0  0  0  0  0  0  0  0  0  0  0
    9.3260   -0.2554   -0.3556 C   0  0  1  0  0  0  0  0  0  0  0  0
    8.9268   -1.4772   -1.2054 C   0  0  0  0  0  0  0  0  0  0  0  0
    7.7663   -2.2879   -0.6102 C   0  0  0  0  0  0  0  0  0  0  0  0
    7.4018   -3.5113   -1.4535 C   0  0  0  0  0  0  0  0  0  0  0  0
    8.4263   -4.5371   -1.4491 N   0  0  0  0  0  0  0  0  0  0  0  0
    8.6295   -5.3356   -0.3640 C   0  0  0  0  0  0  0  0  0  0  0  0
    7.9928   -5.3119    0.6757 O   0  0  0  0  0  0  0  0  0  0  0  0
    9.6578   -6.2053   -0.5527 N   0  0  0  0  0  0  0  0  0  0  0  0
   10.5953    0.2684   -0.8680 N   0  0  0  0  0  0  0  0  0  0  0  0
   11.1600    1.3868   -0.2852 C   0  0  0  0  0  0  0  0  0  0  0  0
   10.5346    2.4368   -0.1834 O   0  0  0  0  0  0  0  0  0  0  0  0
   12.5527    1.1621    0.3656 C   0  0  1  0  0  0  0  0  0  0  0  0
   12.3849    0.7739    1.8607 C   0  0  0  0  0  0  0  0  0  0  0  0
   13.7449    0.6621    2.5649 C   0  0  0  0  0  0  0  0  0  0  0  0
   11.5286    1.7782    2.6399 C   0  0  0  0  0  0  0  0  0  0  0  0
   13.2808    0.0979   -0.3542 N   0  0  0  0  0  0  0  0  0  0  0  0
   13.8574    0.3884   -1.5762 C   0  0  0  0  0  0  0  0  0  0  0  0
   13.5616    1.3729   -2.2395 O   0  0  0  0  0  0  0  0  0  0  0  0
   14.8754   -0.6304   -2.0462 C   0  0  0  0  0  0  0  0  0  0  0  0
   16.2277    0.0397   -2.2880 C   0  0  0  0  0  0  0  0  0  0  0  0
   16.9288    0.4151   -0.9769 C   0  0  0  0  0  0  0  0  0  0  0  0
   18.1779    1.2555   -1.2464 C   0  0  0  0  0  0  0  0  0  0  0  0
   18.9778    1.5876    0.0180 C   0  0  0  0  0  0  0  0  0  0  0  0
   18.1955    2.2290    1.0595 N   0  0  0  0  0  0  0  0  0  0  0  0
   18.0470    1.7401    2.3170 C   0  0  0  0  0  0  0  0  0  0  0  0
   18.4791    0.7097    2.7983 O   0  0  0  0  0  0  0  0  0  0  0  0
   17.2380    2.7086    3.0634 C   0  0  0  0  0  0  0  0  0  0  0  0
   16.9271    3.7036    2.2363 C   0  0  0  0  0  0  0  0  0  0  0  0
   17.5592    3.4199    0.9417 C   0  0  0  0  0  0  0  0  0  0  0  0
   17.4699    4.1524   -0.0250 O   0  0  0  0  0  0  0  0  0  0  0  0
   -4.6500    2.2726    1.2077 H   0  0  0  0  0  0  0  0  0  0  0  0
   -6.1524    1.5439    1.8138 H   0  0  0  0  0  0  0  0  0  0  0  0
   -6.1566    3.2048    1.2230 H   0  0  0  0  0  0  0  0  0  0  0  0
   -7.1365    1.6470   -0.4785 H   0  0  0  0  0  0  0  0  0  0  0  0
   -5.7465    2.5431   -1.0416 H   0  0  0  0  0  0  0  0  0  0  0  0
   -4.2590    0.6685   -0.7076 H   0  0  0  0  0  0  0  0  0  0  0  0
   -4.8747   -0.5644   -2.6438 H   0  0  0  0  0  0  0  0  0  0  0  0
   -6.5948   -0.1731   -2.4590 H   0  0  0  0  0  0  0  0  0  0  0  0
   -5.4215    1.0873   -2.8475 H   0  0  0  0  0  0  0  0  0  0  0  0
   -5.1185   -0.4824    1.1116 H   0  0  0  0  0  0  0  0  0  0  0  0
   -7.3212   -0.2936    1.3451 H   0  0  0  0  0  0  0  0  0  0  0  0
   -8.2252   -0.2363   -0.9967 H   0  0  0  0  0  0  0  0  0  0  0  0
   -7.9637   -1.9670   -1.1399 H   0  0  0  0  0  0  0  0  0  0  0  0
   -8.8403    1.1650    0.9659 H   0  0  0  0  0  0  0  0  0  0  0  0
  -10.0006    1.3610   -0.3745 H   0  0  0  0  0  0  0  0  0  0  0  0
  -10.3610    2.6424    2.0395 H   0  0  0  0  0  0  0  0  0  0  0  0
  -11.7437    2.0037    1.1301 H   0  0  0  0  0  0  0  0  0  0  0  0
  -11.9029    0.9018    3.3216 H   0  0  0  0  0  0  0  0  0  0  0  0
  -10.1640    0.5738    3.3202 H   0  0  0  0  0  0  0  0  0  0  0  0
  -10.8995   -1.4765    2.4441 H   0  0  0  0  0  0  0  0  0  0  0  0
  -12.9804    0.0357    0.7609 H   0  0  0  0  0  0  0  0  0  0  0  0
  -12.2085   -2.2491   -0.1762 H   0  0  0  0  0  0  0  0  0  0  0  0
  -13.6986   -3.4019    2.2461 H   0  0  0  0  0  0  0  0  0  0  0  0
  -11.9366   -3.4440    2.0627 H   0  0  0  0  0  0  0  0  0  0  0  0
  -12.9712   -4.2889    0.9083 H   0  0  0  0  0  0  0  0  0  0  0  0
  -13.4653   -0.9576   -1.6050 H   0  0  0  0  0  0  0  0  0  0  0  0
  -16.4189   -1.2580   -1.4422 H   0  0  0  0  0  0  0  0  0  0  0  0
  -15.5015   -3.3242   -2.4477 H   0  0  0  0  0  0  0  0  0  0  0  0
  -16.3824   -2.3739   -3.6519 H   0  0  0  0  0  0  0  0  0  0  0  0
  -14.6067   -2.3760   -3.6438 H   0  0  0  0  0  0  0  0  0  0  0  0
  -16.2230    0.0134   -3.7119 H   0  0  0  0  0  0  0  0  0  0  0  0
  -15.8635    0.6542   -0.1212 H   0  0  0  0  0  0  0  0  0  0  0  0
  -16.5474    2.7554    0.9372 H   0  0  0  0  0  0  0  0  0  0  0  0
  -17.0699    4.7482   -0.4456 H   0  0  0  0  0  0  0  0  0  0  0  0
  -16.9106    4.6116   -2.9162 H   0  0  0  0  0  0  0  0  0  0  0  0
  -16.2301    2.5074   -4.0034 H   0  0  0  0  0  0  0  0  0  0  0  0
  -13.9810    1.2887   -3.2666 H   0  0  0  0  0  0  0  0  0  0  0  0
  -15.1486   -0.1259    3.5211 H   0  0  0  0  0  0  0  0  0  0  0  0
  -15.4123   -0.8027    1.9172 H   0  0  0  0  0  0  0  0  0  0  0  0
  -14.6583    0.8171    2.1069 H   0  0  0  0  0  0  0  0  0  0  0  0
   -6.9598   -1.5135    3.2888 H   0  0  0  0  0  0  0  0  0  0  0  0
   -8.5801   -1.9760    2.7011 H   0  0  0  0  0  0  0  0  0  0  0  0
   -7.4168   -3.2251    3.1729 H   0  0  0  0  0  0  0  0  0  0  0  0
   -5.7645   -2.5142   -2.0221 H   0  0  0  0  0  0  0  0  0  0  0  0
   -4.6780   -3.7567   -1.4069 H   0  0  0  0  0  0  0  0  0  0  0  0
   -6.1941   -3.4680   -0.5781 H   0  0  0  0  0  0  0  0  0  0  0  0
   -3.1303   -0.2075    1.0877 H   0  0  0  0  0  0  0  0  0  0  0  0
   -2.0268   -2.7922    2.3446 H   0  0  0  0  0  0  0  0  0  0  0  0
   -3.8414   -2.6759    4.0074 H   0  0  0  0  0  0  0  0  0  0  0  0
   -4.5705   -1.3048    3.1634 H   0  0  0  0  0  0  0  0  0  0  0  0
   -4.4989   -2.9125    2.3937 H   0  0  0  0  0  0  0  0  0  0  0  0
   -0.8269   -0.7474    3.0892 H   0  0  0  0  0  0  0  0  0  0  0  0
   -2.3657    0.0128    3.5359 H   0  0  0  0  0  0  0  0  0  0  0  0
   -1.7873   -1.4207    4.4063 H   0  0  0  0  0  0  0  0  0  0  0  0
   -0.8925   -1.9229    0.1903 H   0  0  0  0  0  0  0  0  0  0  0  0
    1.1592   -0.8772    0.4196 H   0  0  0  0  0  0  0  0  0  0  0  0
    0.8537    0.5530   -2.2583 H   0  0  0  0  0  0  0  0  0  0  0  0
   -0.9151   -1.1244   -2.1696 H   0  0  0  0  0  0  0  0  0  0  0  0
    0.2526   -2.3629   -1.6440 H   0  0  0  0  0  0  0  0  0  0  0  0
    0.3848   -1.6263   -3.2455 H   0  0  0  0  0  0  0  0  0  0  0  0
    3.2048   -0.0326   -1.4310 H   0  0  0  0  0  0  0  0  0  0  0  0
    2.7016   -1.7258   -1.3917 H   0  0  0  0  0  0  0  0  0  0  0  0
    2.7229   -0.8411   -2.9277 H   0  0  0  0  0  0  0  0  0  0  0  0
    2.9911    0.1724    1.5702 H   0  0  0  0  0  0  0  0  0  0  0  0
    2.6805    1.8432    2.0854 H   0  0  0  0  0  0  0  0  0  0  0  0
    1.4696    0.5887    2.4024 H   0  0  0  0  0  0  0  0  0  0  0  0
    3.1301    5.1705    0.0443 H   0  0  0  0  0  0  0  0  0  0  0  0
    2.4615    4.4593   -1.4270 H   0  0  0  0  0  0  0  0  0  0  0  0
    3.6942    2.2276   -2.2572 H   0  0  0  0  0  0  0  0  0  0  0  0
    5.8703    1.1016   -2.5064 H   0  0  0  0  0  0  0  0  0  0  0  0
    7.7201    4.0998   -0.0223 H   0  0  0  0  0  0  0  0  0  0  0  0
    5.5279    5.1721    0.3153 H   0  0  0  0  0  0  0  0  0  0  0  0
    8.9756    2.2612   -1.1636 H   0  0  0  0  0  0  0  0  0  0  0  0
    9.5320   -0.5636    0.6786 H   0  0  0  0  0  0  0  0  0  0  0  0
    9.7970   -2.1368   -1.3048 H   0  0  0  0  0  0  0  0  0  0  0  0
    8.6627   -1.1583   -2.2235 H   0  0  0  0  0  0  0  0  0  0  0  0
    6.8693   -1.6671   -0.5551 H   0  0  0  0  0  0  0  0  0  0  0  0
    8.0143   -2.5899    0.4137 H   0  0  0  0  0  0  0  0  0  0  0  0
    7.2217   -3.2270   -2.4956 H   0  0  0  0  0  0  0  0  0  0  0  0
    6.4750   -3.9533   -1.0648 H   0  0  0  0  0  0  0  0  0  0  0  0
    9.1992   -4.4482   -2.0954 H   0  0  0  0  0  0  0  0  0  0  0  0
    9.7384   -6.8676    0.2134 H   0  0  0  0  0  0  0  0  0  0  0  0
    9.7013   -6.6320   -1.4649 H   0  0  0  0  0  0  0  0  0  0  0  0
   11.2959   -0.4499   -1.0256 H   0  0  0  0  0  0  0  0  0  0  0  0
   13.1203    2.0945    0.2677 H   0  0  0  0  0  0  0  0  0  0  0  0
   11.8953   -0.2072    1.9228 H   0  0  0  0  0  0  0  0  0  0  0  0
   14.3122    1.5934    2.4763 H   0  0  0  0  0  0  0  0  0  0  0  0
   13.6092    0.4513    3.6323 H   0  0  0  0  0  0  0  0  0  0  0  0
   14.3533   -0.1477    2.1530 H   0  0  0  0  0  0  0  0  0  0  0  0
   11.5132    1.5265    3.7042 H   0  0  0  0  0  0  0  0  0  0  0  0
   11.9273    2.7917    2.5377 H   0  0  0  0  0  0  0  0  0  0  0  0
   10.4922    1.7732    2.2985 H   0  0  0  0  0  0  0  0  0  0  0  0
   13.7672   -0.5868    0.2083 H   0  0  0  0  0  0  0  0  0  0  0  0
   14.4988   -1.0557   -2.9837 H   0  0  0  0  0  0  0  0  0  0  0  0
   14.9767   -1.4563   -1.3340 H   0  0  0  0  0  0  0  0  0  0  0  0
   16.0913    0.9365   -2.9076 H   0  0  0  0  0  0  0  0  0  0  0  0
   16.8718   -0.6465   -2.8532 H   0  0  0  0  0  0  0  0  0  0  0  0
   17.2021   -0.4973   -0.4325 H   0  0  0  0  0  0  0  0  0  0  0  0
   16.2396    0.9784   -0.3366 H   0  0  0  0  0  0  0  0  0  0  0  0
   18.8404    0.7218   -1.9416 H   0  0  0  0  0  0  0  0  0  0  0  0
   17.8837    2.1857   -1.7465 H   0  0  0  0  0  0  0  0  0  0  0  0
   19.4375    0.6770    0.4170 H   0  0  0  0  0  0  0  0  0  0  0  0
   19.7893    2.2735   -0.2490 H   0  0  0  0  0  0  0  0  0  0  0  0
   16.9656    2.5823    4.0958 H   0  0  0  0  0  0  0  0  0  0  0  0
   16.3401    4.5850    2.4354 H   0  0  0  0  0  0  0  0  0  0  0  0
  1  2  1  0
  2  3  1  0
  3  4  1  0
  3  5  1  0
  5  6  1  0
  6  7  1  0
  7  8  1  0
  8  9  2  0
  8 10  1  0
 10 11  1  0
 11 12  1  0
 12 13  1  0
 13 14  1  0
 14 15  1  0
 15 16  1  0
 16 17  1  0
 16 18  1  0
 18 19  2  0
 18 20  1  0
 20 21  1  0
 21 22  1  0
 21 23  1  0
 23 24  1  0
 24 25  2  0
 25 26  1  0
 26 27  2  0
 27 28  1  0
 28 29  2  0
 23 30  1  0
 15 31  1  0
 31 32  1  0
  6 33  1  0
 33 34  1  0
  5 35  1  0
 35 36  1  0
 35 37  1  0
 37 38  2  0
 37 39  1  0
 39 40  1  0
 40 41  1  0
 40 42  1  0
 39 43  1  0
 43 44  1  0
 44 45  2  0
 44 46  1  0
 46 47  1  0
 47 48  1  0
 47 49  1  0
 46 50  1  0
 50 51  1  0
 50 52  1  0
 52 53  2  0
 52 54  1  0
 54 55  1  0
 55 56  1  0
 56 57  1  0
 57 58  2  0
 58 59  1  0
 59 60  2  0
 60 61  1  0
 59 62  1  0
 62 63  1  0
 63 64  2  0
 63 65  1  0
 65 66  1  0
 66 67  1  0
 67 68  1  0
 68 69  1  0
 69 70  1  0
 70 71  2  0
 70 72  1  0
 65 73  1  0
 73 74  1  0
 74 75  2  0
 74 76  1  0
 76 77  1  0
 77 78  1  0
 77 79  1  0
 76 80  1  0
 80 81  1  0
 81 82  2  0
 81 83  1  0
 83 84  1  0
 84 85  1  0
 85 86  1  0
 86 87  1  0
 87 88  1  0
 88 89  1  0
 89 90  2  0
 89 91  1  0
 91 92  2  0
 92 93  1  0
 93 94  2  0
 14 10  1  0
 29 24  1  0
 61 56  2  0
 93 88  1  0
  1 95  1  0
  1 96  1  0
  1 97  1  0
  2 98  1  0
  2 99  1  0
  3100  1  6
  4101  1  0
  4102  1  0
  4103  1  0
  5104  1  1
  6105  1  1
  7106  1  0
  7107  1  0
 11108  1  0
 11109  1  0
 12110  1  0
 12111  1  0
 13112  1  0
 13113  1  0
 14114  1  1
 15115  1  6
 16116  1  6
 17117  1  0
 17118  1  0
 17119  1  0
 20120  1  0
 21121  1  1
 22122  1  0
 22123  1  0
 22124  1  0
 23125  1  6
 25126  1  0
 26127  1  0
 27128  1  0
 28129  1  0
 29130  1  0
 30131  1  0
 32132  1  0
 32133  1  0
 32134  1  0
 34135  1  0
 34136  1  0
 34137  1  0
 36138  1  0
 36139  1  0
 36140  1  0
 39141  1  1
 40142  1  0
 41143  1  0
 41144  1  0
 41145  1  0
 42146  1  0
 42147  1  0
 42148  1  0
 43149  1  0
 46150  1  1
 47151  1  0
 48152  1  0
 48153  1  0
 48154  1  0
 49155  1  0
 49156  1  0
 49157  1  0
 51158  1  0
 51159  1  0
 51160  1  0
 55161  1  0
 55162  1  0
 57163  1  0
 58164  1  0
 60165  1  0
 61166  1  0
 62167  1  0
 65168  1  1
 66169  1  0
 66170  1  0
 67171  1  0
 67172  1  0
 68173  1  0
 68174  1  0
 69175  1  0
 72176  1  0
 72177  1  0
 73178  1  0
 76179  1  1
 77180  1  0
 78181  1  0
 78182  1  0
 78183  1  0
 79184  1  0
 79185  1  0
 79186  1  0
 80187  1  0
 83188  1  0
 83189  1  0
 84190  1  0
 84191  1  0
 85192  1  0
 85193  1  0
 86194  1  0
 86195  1  0
 87196  1  0
 87197  1  0
 91198  1  0
 92199  1  0
M  END
$$$$

     RDKit          3D

199202  0  0  0  0  0  0  0  0999 V2000
   -7.4647   -0.7169    3.8052 C   0  0  0  0  0  0  0  0  0  0  0  0
   -7.0996    0.4547    2.9001 C   0  0  0  0  0  0  0  0  0  0  0  0
   -6.2831    0.0600    1.6473 C   0  0  2  0  0  0  0  0  0  0  0  0
   -5.0971   -0.8452    2.0025 C   0  0  0  0  0  0  0  0  0  0  0  0
   -5.8500    1.2471    0.6996 C   0  0  1  0  0  0  0  0  0  0  0  0
   -6.9889    2.2530    0.2779 C   0  0  1  0  0  0  0  0  0  0  0  0
   -8.1211    1.4982   -0.4407 C   0  0  0  0  0  0  0  0  0  0  0  0
   -9.0648    2.4634   -1.1240 C   0  0  0  0  0  0  0  0  0  0  0  0
   -8.6520    3.1409   -2.0724 O   0  0  0  0  0  0  0  0  0  0  0  0
  -10.3412    2.6312   -0.6246 N   0  0  0  0  0  0  0  0  0  0  0  0
  -11.1217    3.7817   -1.0558 C   0  0  0  0  0  0  0  0  0  0  0  0
  -12.3335    3.8486   -0.1389 C   0  0  0  0  0  0  0  0  0  0  0  0
  -11.9602    2.9778    1.0542 C   0  0  0  0  0  0  0  0  0  0  0  0
  -10.9703    1.9421    0.5094 C   0  0  1  0  0  0  0  0  0  0  0  0
  -11.6040    0.5479    0.1733 C   0  0  1  0  0  0  0  0  0  0  0  0
  -12.7016    0.5493   -0.9205 C   0  0  1  0  0  0  0  0  0  0  0  0
  -12.4639   -0.3942   -2.1021 C   0  0  0  0  0  0  0  0  0  0  0  0
  -14.0348    0.2791   -0.2328 C   0  0  0  0  0  0  0  0  0  0  0  0
  -14.7774    1.2007    0.0985 O   0  0  0  0  0  0  0  0  0  0  0  0
  -14.2805   -1.0298    0.0974 N   0  0  0  0  0  0  0  0  0  0  0  0
  -15.4433   -1.4621    0.8746 C   0  0  2  0  0  0  0  0  0  0  0  0
  -14.9416   -1.9851    2.2242 C   0  0  0  0  0  0  0  0  0  0  0  0
  -16.2513   -2.5594    0.1322 C   0  0  1  0  0  0  0  0  0  0  0  0
  -17.0504   -2.0267   -1.0419 C   0  0  0  0  0  0  0  0  0  0  0  0
  -18.3938   -1.6571   -0.8597 C   0  0  0  0  0  0  0  0  0  0  0  0
  -19.1412   -1.1478   -1.9235 C   0  0  0  0  0  0  0  0  0  0  0  0
  -18.5571   -0.9954   -3.1787 C   0  0  0  0  0  0  0  0  0  0  0  0
  -17.2237   -1.3530   -3.3723 C   0  0  0  0  0  0  0  0  0  0  0  0
  -16.4744   -1.8644   -2.3114 C   0  0  0  0  0  0  0  0  0  0  0  0
  -15.3703   -3.6105   -0.2973 O   0  0  0  0  0  0  0  0  0  0  0  0
  -10.5578   -0.3741   -0.1874 O   0  0  0  0  0  0  0  0  0  0  0  0
  -10.4405   -1.4686    0.7151 C   0  0  0  0  0  0  0  0  0  0  0  0
   -7.5352    2.9244    1.4231 O   0  0  0  0  0  0  0  0  0  0  0  0
   -7.6438    4.3342    1.2468 C   0  0  0  0  0  0  0  0  0  0  0  0
   -4.5806    1.9392    1.1151 N   0  0  0  0  0  0  0  0  0  0  0  0
   -4.5756    2.6426    2.3945 C   0  0  0  0  0  0  0  0  0  0  0  0
   -3.3051    1.6252    0.6265 C   0  0  0  0  0  0  0  0  0  0  0  0
   -2.2878    1.9280    1.2695 O   0  0  0  0  0  0  0  0  0  0  0  0
   -3.1094    0.9622   -0.7664 C   0  0  1  0  0  0  0  0  0  0  0  0
   -2.9709    1.9818   -1.9215 C   0  0  0  0  0  0  0  0  0  0  0  0
   -4.2983    2.6506   -2.2702 C   0  0  0  0  0  0  0  0  0  0  0  0
   -1.9069    3.0577   -1.6769 C   0  0  0  0  0  0  0  0  0  0  0  0
   -1.8716    0.1637   -0.6621 N   0  0  0  0  0  0  0  0  0  0  0  0
   -1.9051   -1.2069   -0.5028 C   0  0  0  0  0  0  0  0  0  0  0  0
   -2.9460   -1.8378   -0.6695 O   0  0  0  0  0  0  0  0  0  0  0  0
   -0.5440   -1.8632   -0.1008 C   0  0  1  0  0  0  0  0  0  0  0  0
   -0.0979   -1.5702    1.3669 C   0  0  0  0  0  0  0  0  0  0  0  0
   -1.2499   -1.5005    2.3712 C   0  0  0  0  0  0  0  0  0  0  0  0
    0.7784   -0.3181    1.4748 C   0  0  0  0  0  0  0  0  0  0  0  0
   -0.4318   -3.3247   -0.3722 N   0  0  0  0  0  0  0  0  0  0  0  0
   -1.5948   -4.1871   -0.2323 C   0  0  0  0  0  0  0  0  0  0  0  0
    0.7791   -3.9252   -0.6822 C   0  0  0  0  0  0  0  0  0  0  0  0
    0.9111   -5.1189   -0.9284 O   0  0  0  0  0  0  0  0  0  0  0  0
    1.8234   -3.0513   -0.6602 O   0  0  0  0  0  0  0  0  0  0  0  0
    3.0842   -3.6872   -0.8740 C   0  0  0  0  0  0  0  0  0  0  0  0
    4.1863   -2.6599   -0.8083 C   0  0  0  0  0  0  0  0  0  0  0  0
    5.1481   -2.7044    0.2088 C   0  0  0  0  0  0  0  0  0  0  0  0
    6.2287   -1.8130    0.2152 C   0  0  0  0  0  0  0  0  0  0  0  0
    6.3657   -0.8626   -0.7951 C   0  0  0  0  0  0  0  0  0  0  0  0
    5.3762   -0.7831   -1.7839 C   0  0  0  0  0  0  0  0  0  0  0  0
    4.2966   -1.6712   -1.7910 C   0  0  0  0  0  0  0  0  0  0  0  0
    7.4725    0.0041   -0.9255 N   0  0  0  0  0  0  0  0  0  0  0  0
    8.6204    0.0277   -0.1488 C   0  0  0  0  0  0  0  0  0  0  0  0
    8.8042   -0.5797    0.9060 O   0  0  0  0  0  0  0  0  0  0  0  0
    9.7151    0.9586   -0.7276 C   0  0  1  0  0  0  0  0  0  0  0  0
    9.4383    2.4391   -0.4275 C   0  0  0  0  0  0  0  0  0  0  0  0
    9.3685    2.7821    1.0680 C   0  0  0  0  0  0  0  0  0  0  0  0
    9.1600    4.2741    1.3196 C   0  0  0  0  0  0  0  0  0  0  0  0
   10.3493    5.0520    1.0254 N   0  0  0  0  0  0  0  0  0  0  0  0
   10.4639    6.3172    1.5254 C   0  0  0  0  0  0  0  0  0  0  0  0
    9.6896    6.8619    2.2957 O   0  0  0  0  0  0  0  0  0  0  0  0
   11.5766    6.9417    1.0627 N   0  0  0  0  0  0  0  0  0  0  0  0
   11.0218    0.5398   -0.2258 N   0  0  0  0  0  0  0  0  0  0  0  0
   11.6912   -0.4943   -0.8562 C   0  0  0  0  0  0  0  0  0  0  0  0
   11.3104   -0.9679   -1.9287 O   0  0  0  0  0  0  0  0  0  0  0  0
   12.9419   -1.0218   -0.1076 C   0  0  1  0  0  0  0  0  0  0  0  0
   12.5817   -1.7104    1.2298 C   0  0  0  0  0  0  0  0  0  0  0  0
   11.6629   -2.9254    1.0590 C   0  0  0  0  0  0  0  0  0  0  0  0
   13.8462   -2.1147    1.9952 C   0  0  0  0  0  0  0  0  0  0  0  0
   13.6599   -1.9209   -1.0102 N   0  0  0  0  0  0  0  0  0  0  0  0
   14.6395   -1.4330   -1.8521 C   0  0  0  0  0  0  0  0  0  0  0  0
   15.0985   -0.3003   -1.7704 O   0  0  0  0  0  0  0  0  0  0  0  0
   15.0705   -2.4580   -2.8868 C   0  0  0  0  0  0  0  0  0  0  0  0
   16.2457   -2.0248   -3.7644 C   0  0  0  0  0  0  0  0  0  0  0  0
   17.6234   -2.3782   -3.1912 C   0  0  0  0  0  0  0  0  0  0  0  0
   18.0115   -1.5663   -1.9558 C   0  0  0  0  0  0  0  0  0  0  0  0
   19.4300   -1.9040   -1.4955 C   0  0  0  0  0  0  0  0  0  0  0  0
   19.8403   -1.0734   -0.3821 N   0  0  0  0  0  0  0  0  0  0  0  0
   20.5094    0.0998   -0.5017 C   0  0  0  0  0  0  0  0  0  0  0  0
   20.9197    0.6532   -1.5059 O   0  0  0  0  0  0  0  0  0  0  0  0
   20.6711    0.6426    0.8520 C   0  0  0  0  0  0  0  0  0  0  0  0
   20.0811   -0.2010    1.7011 C   0  0  0  0  0  0  0  0  0  0  0  0
   19.5251   -1.3089    0.9167 C   0  0  0  0  0  0  0  0  0  0  0  0
   18.9008   -2.2346    1.4018 O   0  0  0  0  0  0  0  0  0  0  0  0
   -8.1792   -0.3905    4.5673 H   0  0  0  0  0  0  0  0  0  0  0  0
   -7.9269   -1.5288    3.2355 H   0  0  0  0  0  0  0  0  0  0  0  0
   -6.5867   -1.1069    4.3275 H   0  0  0  0  0  0  0  0  0  0  0  0
   -6.5696    1.1998    3.4981 H   0  0  0  0  0  0  0  0  0  0  0  0
   -8.0452    0.9068    2.5858 H   0  0  0  0  0  0  0  0  0  0  0  0
   -6.9552   -0.5675    1.0442 H   0  0  0  0  0  0  0  0  0  0  0  0
   -4.4389   -0.3857    2.7446 H   0  0  0  0  0  0  0  0  0  0  0  0
   -4.5101   -1.0782    1.1142 H   0  0  0  0  0  0  0  0  0  0  0  0
   -5.4378   -1.8042    2.4054 H   0  0  0  0  0  0  0  0  0  0  0  0
   -5.6064    0.7469   -0.2396 H   0  0  0  0  0  0  0  0  0  0  0  0
   -6.5509    2.9919   -0.4042 H   0  0  0  0  0  0  0  0  0  0  0  0
   -7.7210    0.8435   -1.2247 H   0  0  0  0  0  0  0  0  0  0  0  0
   -8.6381    0.8641    0.2732 H   0  0  0  0  0  0  0  0  0  0  0  0
  -10.5063    4.6818   -0.9653 H   0  0  0  0  0  0  0  0  0  0  0  0
  -11.4029    3.6588   -2.1057 H   0  0  0  0  0  0  0  0  0  0  0  0
  -12.5618    4.8771    0.1581 H   0  0  0  0  0  0  0  0  0  0  0  0
  -13.2260    3.4670   -0.6431 H   0  0  0  0  0  0  0  0  0  0  0  0
  -12.8290    2.5389    1.5531 H   0  0  0  0  0  0  0  0  0  0  0  0
  -11.4466    3.6069    1.7915 H   0  0  0  0  0  0  0  0  0  0  0  0
  -10.2048    1.7739    1.2758 H   0  0  0  0  0  0  0  0  0  0  0  0
  -12.0460    0.2132    1.1233 H   0  0  0  0  0  0  0  0  0  0  0  0
  -12.8032    1.5377   -1.3716 H   0  0  0  0  0  0  0  0  0  0  0  0
  -12.2963   -1.4300   -1.7912 H   0  0  0  0  0  0  0  0  0  0  0  0
  -11.5899   -0.0710   -2.6776 H   0  0  0  0  0  0  0  0  0  0  0  0
  -13.3278   -0.3917   -2.7768 H   0  0  0  0  0  0  0  0  0  0  0  0
  -13.6983   -1.7744   -0.2663 H   0  0  0  0  0  0  0  0  0  0  0  0
  -16.0932   -0.5999    1.0687 H   0  0  0  0  0  0  0  0  0  0  0  0
  -15.7758   -2.3117    2.8532 H   0  0  0  0  0  0  0  0  0  0  0  0
  -14.2553   -2.8301    2.0969 H   0  0  0  0  0  0  0  0  0  0  0  0
  -14.3991   -1.2006    2.7637 H   0  0  0  0  0  0  0  0  0  0  0  0
  -16.9531   -3.0234    0.8376 H   0  0  0  0  0  0  0  0  0  0  0  0
  -18.8685   -1.7570    0.1143 H   0  0  0  0  0  0  0  0  0  0  0  0
  -20.1783   -0.8615   -1.7705 H   0  0  0  0  0  0  0  0  0  0  0  0
  -19.1382   -0.5918   -4.0044 H   0  0  0  0  0  0  0  0  0  0  0  0
  -16.7642   -1.2244   -4.3491 H   0  0  0  0  0  0  0  0  0  0  0  0
  -15.4311   -2.1283   -2.4804 H   0  0  0  0  0  0  0  0  0  0  0  0
  -15.9146   -4.2070   -0.8402 H   0  0  0  0  0  0  0  0  0  0  0  0
   -9.6162   -2.1024    0.3781 H   0  0  0  0  0  0  0  0  0  0  0  0
  -11.3594   -2.0637    0.7182 H   0  0  0  0  0  0  0  0  0  0  0  0
  -10.2138   -1.1109    1.7250 H   0  0  0  0  0  0  0  0  0  0  0  0
   -8.0483    4.7643    2.1675 H   0  0  0  0  0  0  0  0  0  0  0  0
   -8.3195    4.5822    0.4261 H   0  0  0  0  0  0  0  0  0  0  0  0
   -6.6578    4.7732    1.0641 H   0  0  0  0  0  0  0  0  0  0  0  0
   -5.5061    3.1758    2.5664 H   0  0  0  0  0  0  0  0  0  0  0  0
   -4.4061    1.9230    3.1983 H   0  0  0  0  0  0  0  0  0  0  0  0
   -3.7663    3.3775    2.4210 H   0  0  0  0  0  0  0  0  0  0  0  0
   -3.9183    0.2693   -0.9931 H   0  0  0  0  0  0  0  0  0  0  0  0
   -2.6551    1.4206   -2.8127 H   0  0  0  0  0  0  0  0  0  0  0  0
   -4.2025    3.2342   -3.1932 H   0  0  0  0  0  0  0  0  0  0  0  0
   -5.0868    1.9085   -2.4317 H   0  0  0  0  0  0  0  0  0  0  0  0
   -4.6162    3.3384   -1.4816 H   0  0  0  0  0  0  0  0  0  0  0  0
   -2.1789    3.7148   -0.8447 H   0  0  0  0  0  0  0  0  0  0  0  0
   -1.7885    3.6874   -2.5662 H   0  0  0  0  0  0  0  0  0  0  0  0
   -0.9293    2.6159   -1.4596 H   0  0  0  0  0  0  0  0  0  0  0  0
   -1.0957    0.6635   -0.2439 H   0  0  0  0  0  0  0  0  0  0  0  0
    0.1835   -1.3953   -0.7774 H   0  0  0  0  0  0  0  0  0  0  0  0
    0.5430   -2.3984    1.6976 H   0  0  0  0  0  0  0  0  0  0  0  0
   -0.8592   -1.4344    3.3926 H   0  0  0  0  0  0  0  0  0  0  0  0
   -1.8790   -0.6224    2.2087 H   0  0  0  0  0  0  0  0  0  0  0  0
   -1.8816   -2.3910    2.3203 H   0  0  0  0  0  0  0  0  0  0  0  0
    1.6004   -0.3482    0.7526 H   0  0  0  0  0  0  0  0  0  0  0  0
    0.2120    0.6022    1.3144 H   0  0  0  0  0  0  0  0  0  0  0  0
    1.2253   -0.2507    2.4731 H   0  0  0  0  0  0  0  0  0  0  0  0
   -2.1997   -4.1189   -1.1409 H   0  0  0  0  0  0  0  0  0  0  0  0
   -2.1786   -3.8959    0.6441 H   0  0  0  0  0  0  0  0  0  0  0  0
   -1.3040   -5.2348   -0.1026 H   0  0  0  0  0  0  0  0  0  0  0  0
    3.1070   -4.1632   -1.8625 H   0  0  0  0  0  0  0  0  0  0  0  0
    3.2439   -4.4566   -0.1084 H   0  0  0  0  0  0  0  0  0  0  0  0
    5.0828   -3.4539    0.9964 H   0  0  0  0  0  0  0  0  0  0  0  0
    6.9564   -1.9090    1.0148 H   0  0  0  0  0  0  0  0  0  0  0  0
    5.4425   -0.0495   -2.5826 H   0  0  0  0  0  0  0  0  0  0  0  0
    3.5550   -1.6089   -2.5854 H   0  0  0  0  0  0  0  0  0  0  0  0
    7.4724    0.5793   -1.7578 H   0  0  0  0  0  0  0  0  0  0  0  0
    9.7153    0.8307   -1.8173 H   0  0  0  0  0  0  0  0  0  0  0  0
    8.4903    2.7315   -0.8980 H   0  0  0  0  0  0  0  0  0  0  0  0
   10.2250    3.0375   -0.9022 H   0  0  0  0  0  0  0  0  0  0  0  0
    8.5317    2.2382    1.5205 H   0  0  0  0  0  0  0  0  0  0  0  0
   10.2816    2.4562    1.5799 H   0  0  0  0  0  0  0  0  0  0  0  0
    8.3380    4.6698    0.7118 H   0  0  0  0  0  0  0  0  0  0  0  0
    8.8981    4.4299    2.3722 H   0  0  0  0  0  0  0  0  0  0  0  0
   10.7276    4.9769    0.0925 H   0  0  0  0  0  0  0  0  0  0  0  0
   11.7406    7.8304    1.5209 H   0  0  0  0  0  0  0  0  0  0  0  0
   12.4013    6.3636    0.9873 H   0  0  0  0  0  0  0  0  0  0  0  0
   11.1396    0.5934    0.7776 H   0  0  0  0  0  0  0  0  0  0  0  0
   13.5746   -0.1486    0.1004 H   0  0  0  0  0  0  0  0  0  0  0  0
   12.0446   -0.9896    1.8595 H   0  0  0  0  0  0  0  0  0  0  0  0
   10.7410   -2.6589    0.5325 H   0  0  0  0  0  0  0  0  0  0  0  0
   11.3763   -3.3270    2.0378 H   0  0  0  0  0  0  0  0  0  0  0  0
   12.1531   -3.7304    0.5017 H   0  0  0  0  0  0  0  0  0  0  0  0
   13.5888   -2.4939    2.9897 H   0  0  0  0  0  0  0  0  0  0  0  0
   14.4022   -2.8998    1.4727 H   0  0  0  0  0  0  0  0  0  0  0  0
   14.5122   -1.2560    2.1293 H   0  0  0  0  0  0  0  0  0  0  0  0
   13.1032   -2.6803   -1.3883 H   0  0  0  0  0  0  0  0  0  0  0  0
   15.2936   -3.4073   -2.3855 H   0  0  0  0  0  0  0  0  0  0  0  0
   14.2022   -2.6252   -3.5368 H   0  0  0  0  0  0  0  0  0  0  0  0
   16.1561   -2.5514   -4.7236 H   0  0  0  0  0  0  0  0  0  0  0  0
   16.1972   -0.9536   -3.9943 H   0  0  0  0  0  0  0  0  0  0  0  0
   18.3702   -2.2046   -3.9759 H   0  0  0  0  0  0  0  0  0  0  0  0
   17.6607   -3.4491   -2.9582 H   0  0  0  0  0  0  0  0  0  0  0  0
   17.3145   -1.7669   -1.1343 H   0  0  0  0  0  0  0  0  0  0  0  0
   17.9411   -0.4947   -2.1825 H   0  0  0  0  0  0  0  0  0  0  0  0
   20.1386   -1.7580   -2.3185 H   0  0  0  0  0  0  0  0  0  0  0  0
   19.4780   -2.9527   -1.1807 H   0  0  0  0  0  0  0  0  0  0  0  0
   21.1804    1.5650    1.0644 H   0  0  0  0  0  0  0  0  0  0  0  0
   19.9937   -0.1272    2.7708 H   0  0  0  0  0  0  0  0  0  0  0  0
  1  2  1  0
  2  3  1  0
  3  4  1  0
  3  5  1  0
  5  6  1  0
  6  7  1  0
  7  8  1  0
  8  9  2  0
  8 10  1  0
 10 11  1  0
 11 12  1  0
 12 13  1  0
 13 14  1  0
 14 15  1  0
 15 16  1  0
 16 17  1  0
 16 18  1  0
 18 19  2  0
 18 20  1  0
 20 21  1  0
 21 22  1  0
 21 23  1  0
 23 24  1  0
 24 25  2  0
 25 26  1  0
 26 27  2  0
 27 28  1  0
 28 29  2  0
 23 30  1  0
 15 31  1  0
 31 32  1  0
  6 33  1  0
 33 34  1  0
  5 35  1  0
 35 36  1  0
 35 37  1  0
 37 38  2  0
 37 39  1  0
 39 40  1  0
 40 41  1  0
 40 42  1  0
 39 43  1  0
 43 44  1  0
 44 45  2  0
 44 46  1  0
 46 47  1  0
 47 48  1  0
 47 49  1  0
 46 50  1  0
 50 51  1  0
 50 52  1  0
 52 53  2  0
 52 54  1  0
 54 55  1  0
 55 56  1  0
 56 57  1  0
 57 58  2  0
 58 59  1  0
 59 60  2  0
 60 61  1  0
 59 62  1  0
 62 63  1  0
 63 64  2  0
 63 65  1  0
 65 66  1  0
 66 67  1  0
 67 68  1  0
 68 69  1  0
 69 70  1  0
 70 71  2  0
 70 72  1  0
 65 73  1  0
 73 74  1  0
 74 75  2  0
 74 76  1  0
 76 77  1  0
 77 78  1  0
 77 79  1  0
 76 80  1  0
 80 81  1  0
 81 82  2  0
 81 83  1  0
 83 84  1  0
 84 85  1  0
 85 86  1  0
 86 87  1  0
 87 88  1  0
 88 89  1  0
 89 90  2  0
 89 91  1  0
 91 92  2  0
 92 93  1  0
 93 94  2  0
 14 10  1  0
 29 24  1  0
 61 56  2  0
 93 88  1  0
  1 95  1  0
  1 96  1  0
  1 97  1  0
  2 98  1  0
  2 99  1  0
  3100  1  6
  4101  1  0
  4102  1  0
  4103  1  0
  5104  1  6
  6105  1  6
  7106  1  0
  7107  1  0
 11108  1  0
 11109  1  0
 12110  1  0
 12111  1  0
 13112  1  0
 13113  1  0
 14114  1  1
 15115  1  1
 16116  1  6
 17117  1  0
 17118  1  0
 17119  1  0
 20120  1  0
 21121  1  1
 22122  1  0
 22123  1  0
 22124  1  0
 23125  1  1
 25126  1  0
 26127  1  0
 27128  1  0
 28129  1  0
 29130  1  0
 30131  1  0
 32132  1  0
 32133  1  0
 32134  1  0
 34135  1  0
 34136  1  0
 34137  1  0
 36138  1  0
 36139  1  0
 36140  1  0
 39141  1  6
 40142  1  0
 41143  1  0
 41144  1  0
 41145  1  0
 42146  1  0
 42147  1  0
 42148  1  0
 43149  1  0
 46150  1  6
 47151  1  0
 48152  1  0
 48153  1  0
 48154  1  0
 49155  1  0
 49156  1  0
 49157  1  0
 51158  1  0
 51159  1  0
 51160  1  0
 55161  1  0
 55162  1  0
 57163  1  0
 58164  1  0
 60165  1  0
 61166  1  0
 62167  1  0
 65168  1  6
 66169  1  0
 66170  1  0
 67171  1  0
 67172  1  0
 68173  1  0
 68174  1  0
 69175  1  0
 72176  1  0
 72177  1  0
 73178  1  0
 76179  1  1
 77180  1  0
 78181  1  0
 78182  1  0
 78183  1  0
 79184  1  0
 79185  1  0
 79186  1  0
 80187  1  0
 83188  1  0
 83189  1  0
 84190  1  0
 84191  1  0
 85192  1  0
 85193  1  0
 86194  1  0
 86195  1  0
 87196  1  0
 87197  1  0
 91198  1  0
 92199  1  0
M  END
$$$$

     RDKit          3D

199202  0  0  0  0  0  0  0  0999 V2000
    2.7551    3.8593    0.3525 C   0  0  0  0  0  0  0  0  0  0  0  0
    3.2134    2.4104    0.4683 C   0  0  0  0  0  0  0  0  0  0  0  0
    4.4089    2.1947    1.4309 C   0  0  2  0  0  0  0  0  0  0  0  0
    5.5853    3.0813    0.9780 C   0  0  0  0  0  0  0  0  0  0  0  0
    4.8562    0.6912    1.5222 C   0  0  1  0  0  0  0  0  0  0  0  0
    5.7435    0.3488    2.7935 C   0  0  1  0  0  0  0  0  0  0  0  0
    6.7676   -0.7620    2.4909 C   0  0  0  0  0  0  0  0  0  0  0  0
    8.0187   -0.3308    1.7404 C   0  0  0  0  0  0  0  0  0  0  0  0
    8.2717    0.8503    1.5241 O   0  0  0  0  0  0  0  0  0  0  0  0
    8.8751   -1.3508    1.3583 N   0  0  0  0  0  0  0  0  0  0  0  0
    8.6345   -2.7751    1.5507 C   0  0  0  0  0  0  0  0  0  0  0  0
   10.0106   -3.4164    1.5275 C   0  0  0  0  0  0  0  0  0  0  0  0
   10.7833   -2.5138    0.5808 C   0  0  0  0  0  0  0  0  0  0  0  0
   10.2755   -1.1059    0.9456 C   0  0  1  0  0  0  0  0  0  0  0  0
   10.5268   -0.0576   -0.1789 C   0  0  1  0  0  0  0  0  0  0  0  0
   12.0241    0.0436   -0.5842 C   0  0  1  0  0  0  0  0  0  0  0  0
   12.2439    1.1110   -1.6641 C   0  0  0  0  0  0  0  0  0  0  0  0
   12.9366    0.3482    0.5981 C   0  0  0  0  0  0  0  0  0  0  0  0
   12.5387    0.8079    1.6624 O   0  0  0  0  0  0  0  0  0  0  0  0
   14.2655    0.0537    0.3650 N   0  0  0  0  0  0  0  0  0  0  0  0
   15.3115    0.4012    1.3306 C   0  0  2  0  0  0  0  0  0  0  0  0
   15.7114    1.8717    1.1741 C   0  0  0  0  0  0  0  0  0  0  0  0
   16.5204   -0.5821    1.2796 C   0  0  1  0  0  0  0  0  0  0  0  0
   17.2645   -0.5886   -0.0446 C   0  0  0  0  0  0  0  0  0  0  0  0
   18.3348    0.2852   -0.2884 C   0  0  0  0  0  0  0  0  0  0  0  0
   18.9868    0.2920   -1.5229 C   0  0  0  0  0  0  0  0  0  0  0  0
   18.5787   -0.5765   -2.5316 C   0  0  0  0  0  0  0  0  0  0  0  0
   17.5254   -1.4594   -2.3041 C   0  0  0  0  0  0  0  0  0  0  0  0
   16.8747   -1.4679   -1.0689 C   0  0  0  0  0  0  0  0  0  0  0  0
   17.4396   -0.3066    2.3395 O   0  0  0  0  0  0  0  0  0  0  0  0
    9.8032   -0.4653   -1.3622 O   0  0  0  0  0  0  0  0  0  0  0  0
    8.8475    0.5035   -1.7761 C   0  0  0  0  0  0  0  0  0  0  0  0
    6.2665    1.5119    3.4358 O   0  0  0  0  0  0  0  0  0  0  0  0
    6.9534    1.2705    4.6535 C   0  0  0  0  0  0  0  0  0  0  0  0
    3.6895   -0.2524    1.4674 N   0  0  0  0  0  0  0  0  0  0  0  0
    2.7961   -0.3051    2.6229 C   0  0  0  0  0  0  0  0  0  0  0  0
    3.4378   -1.1864    0.4718 C   0  0  0  0  0  0  0  0  0  0  0  0
    2.6962   -2.1568    0.6887 O   0  0  0  0  0  0  0  0  0  0  0  0
    4.0624   -1.0259   -0.9333 C   0  0  1  0  0  0  0  0  0  0  0  0
    5.4071   -1.7685   -1.0930 C   0  0  0  0  0  0  0  0  0  0  0  0
    5.9548   -1.5943   -2.5151 C   0  0  0  0  0  0  0  0  0  0  0  0
    5.3389   -3.2606   -0.7513 C   0  0  0  0  0  0  0  0  0  0  0  0
    3.0602   -1.5512   -1.8760 N   0  0  0  0  0  0  0  0  0  0  0  0
    2.1293   -0.7202   -2.4773 C   0  0  0  0  0  0  0  0  0  0  0  0
    2.1585    0.5001   -2.3569 O   0  0  0  0  0  0  0  0  0  0  0  0
    1.0905   -1.4714   -3.3522 C   0  0  1  0  0  0  0  0  0  0  0  0
    0.1063   -2.3817   -2.5673 C   0  0  0  0  0  0  0  0  0  0  0  0
   -0.3300   -1.8607   -1.1968 C   0  0  0  0  0  0  0  0  0  0  0  0
   -1.0772   -2.8496   -3.4169 C   0  0  0  0  0  0  0  0  0  0  0  0
    0.5703   -0.6038   -4.4351 N   0  0  0  0  0  0  0  0  0  0  0  0
    1.3797   -0.5636   -5.6462 C   0  0  0  0  0  0  0  0  0  0  0  0
   -0.3413    0.4339   -4.2752 C   0  0  0  0  0  0  0  0  0  0  0  0
   -0.5231    1.2993   -5.1271 O   0  0  0  0  0  0  0  0  0  0  0  0
   -1.0529    0.3873   -3.1187 O   0  0  0  0  0  0  0  0  0  0  0  0
   -1.9948    1.4637   -2.9879 C   0  0  0  0  0  0  0  0  0  0  0  0
   -3.0687    1.1874   -1.9544 C   0  0  0  0  0  0  0  0  0  0  0  0
   -3.4502   -0.1076   -1.5977 C   0  0  0  0  0  0  0  0  0  0  0  0
   -4.4902   -0.3269   -0.6886 C   0  0  0  0  0  0  0  0  0  0  0  0
   -5.2082    0.7463   -0.1505 C   0  0  0  0  0  0  0  0  0  0  0  0
   -4.8423    2.0419   -0.5095 C   0  0  0  0  0  0  0  0  0  0  0  0
   -3.7804    2.2608   -1.3995 C   0  0  0  0  0  0  0  0  0  0  0  0
   -6.2758    0.4337    0.7169 N   0  0  0  0  0  0  0  0  0  0  0  0
   -7.2778    1.2895    1.1495 C   0  0  0  0  0  0  0  0  0  0  0  0
   -7.4068    2.4709    0.8325 O   0  0  0  0  0  0  0  0  0  0  0  0
   -8.3676    0.5764    1.9770 C   0  0  1  0  0  0  0  0  0  0  0  0
   -8.4879    1.1034    3.4137 C   0  0  0  0  0  0  0  0  0  0  0  0
   -8.7291    2.6049    3.6283 C   0  0  0  0  0  0  0  0  0  0  0  0
   -9.9519    3.2089    2.9437 C   0  0  0  0  0  0  0  0  0  0  0  0
  -11.1893    2.5461    3.3062 N   0  0  0  0  0  0  0  0  0  0  0  0
  -12.3715    3.0370    2.8312 C   0  0  0  0  0  0  0  0  0  0  0  0
  -12.5142    4.0728    2.2037 O   0  0  0  0  0  0  0  0  0  0  0  0
  -13.4125    2.2171    3.1281 N   0  0  0  0  0  0  0  0  0  0  0  0
   -9.6081    0.6375    1.2125 N   0  0  0  0  0  0  0  0  0  0  0  0
  -10.5500   -0.3616    1.2611 C   0  0  0  0  0  0  0  0  0  0  0  0
  -10.4866   -1.2745    2.0885 O   0  0  0  0  0  0  0  0  0  0  0  0
  -11.6645   -0.2975    0.1884 C   0  0  1  0  0  0  0  0  0  0  0  0
  -11.0508   -0.4297   -1.2309 C   0  0  0  0  0  0  0  0  0  0  0  0
  -10.4269   -1.8070   -1.4811 C   0  0  0  0  0  0  0  0  0  0  0  0
  -12.0494   -0.1031   -2.3426 C   0  0  0  0  0  0  0  0  0  0  0  0
  -12.6075   -1.3639    0.5197 N   0  0  0  0  0  0  0  0  0  0  0  0
  -13.9390   -1.3381    0.1859 C   0  0  0  0  0  0  0  0  0  0  0  0
  -14.4500   -0.4370   -0.4697 O   0  0  0  0  0  0  0  0  0  0  0  0
  -14.7102   -2.5267    0.7408 C   0  0  0  0  0  0  0  0  0  0  0  0
  -15.9532   -2.9007   -0.0698 C   0  0  0  0  0  0  0  0  0  0  0  0
  -17.2675   -2.3047    0.4472 C   0  0  0  0  0  0  0  0  0  0  0  0
  -17.3682   -0.7943    0.2641 C   0  0  0  0  0  0  0  0  0  0  0  0
  -18.7535   -0.2662    0.6379 C   0  0  0  0  0  0  0  0  0  0  0  0
  -18.8536    1.1547    0.3680 N   0  0  0  0  0  0  0  0  0  0  0  0
  -18.3904    2.1298    1.1888 C   0  0  0  0  0  0  0  0  0  0  0  0
  -17.8956    2.0318    2.2979 O   0  0  0  0  0  0  0  0  0  0  0  0
  -18.5747    3.4053    0.4863 C   0  0  0  0  0  0  0  0  0  0  0  0
  -19.0879    3.1369   -0.7154 C   0  0  0  0  0  0  0  0  0  0  0  0
  -19.2504    1.6824   -0.8171 C   0  0  0  0  0  0  0  0  0  0  0  0
  -19.6647    1.1142   -1.8108 O   0  0  0  0  0  0  0  0  0  0  0  0
    3.4948    4.4734   -0.1691 H   0  0  0  0  0  0  0  0  0  0  0  0
    2.5696    4.2953    1.3380 H   0  0  0  0  0  0  0  0  0  0  0  0
    1.8267    3.9109   -0.2251 H   0  0  0  0  0  0  0  0  0  0  0  0
    2.3519    1.8261    0.8050 H   0  0  0  0  0  0  0  0  0  0  0  0
    3.4730    2.0542   -0.5328 H   0  0  0  0  0  0  0  0  0  0  0  0
    4.0909    2.5224    2.4294 H   0  0  0  0  0  0  0  0  0  0  0  0
    6.5136    2.8631    1.5064 H   0  0  0  0  0  0  0  0  0  0  0  0
    5.3651    4.1382    1.1564 H   0  0  0  0  0  0  0  0  0  0  0  0
    5.7809    2.9497   -0.0916 H   0  0  0  0  0  0  0  0  0  0  0  0
    5.4667    0.5030    0.6353 H   0  0  0  0  0  0  0  0  0  0  0  0
    5.0766   -0.0867    3.5439 H   0  0  0  0  0  0  0  0  0  0  0  0
    7.1149   -1.1779    3.4445 H   0  0  0  0  0  0  0  0  0  0  0  0
    6.2708   -1.5695    1.9425 H   0  0  0  0  0  0  0  0  0  0  0  0
    8.1055   -2.9882    2.4826 H   0  0  0  0  0  0  0  0  0  0  0  0
    8.0247   -3.1198    0.7102 H   0  0  0  0  0  0  0  0  0  0  0  0
    9.9833   -4.4601    1.2017 H   0  0  0  0  0  0  0  0  0  0  0  0
   10.4610   -3.3769    2.5268 H   0  0  0  0  0  0  0  0  0  0  0  0
   11.8646   -2.6150    0.7072 H   0  0  0  0  0  0  0  0  0  0  0  0
   10.5314   -2.7727   -0.4546 H   0  0  0  0  0  0  0  0  0  0  0  0
   10.7725   -0.7854    1.8681 H   0  0  0  0  0  0  0  0  0  0  0  0
   10.1935    0.9310    0.1590 H   0  0  0  0  0  0  0  0  0  0  0  0
   12.3366   -0.9164   -1.0160 H   0  0  0  0  0  0  0  0  0  0  0  0
   13.3012    1.1969   -1.9369 H   0  0  0  0  0  0  0  0  0  0  0  0
   11.6942    0.8716   -2.5790 H   0  0  0  0  0  0  0  0  0  0  0  0
   11.9183    2.0961   -1.3128 H   0  0  0  0  0  0  0  0  0  0  0  0
   14.5594   -0.0633   -0.5974 H   0  0  0  0  0  0  0  0  0  0  0  0
   14.8758    0.3095    2.3346 H   0  0  0  0  0  0  0  0  0  0  0  0
   16.0659    2.0892    0.1608 H   0  0  0  0  0  0  0  0  0  0  0  0
   14.8524    2.5278    1.3563 H   0  0  0  0  0  0  0  0  0  0  0  0
   16.4960    2.1487    1.8849 H   0  0  0  0  0  0  0  0  0  0  0  0
   16.1504   -1.6000    1.4585 H   0  0  0  0  0  0  0  0  0  0  0  0
   18.6704    0.9660    0.4918 H   0  0  0  0  0  0  0  0  0  0  0  0
   19.8148    0.9753   -1.6931 H   0  0  0  0  0  0  0  0  0  0  0  0
   19.0875   -0.5699   -3.4915 H   0  0  0  0  0  0  0  0  0  0  0  0
   17.2148   -2.1445   -3.0880 H   0  0  0  0  0  0  0  0  0  0  0  0
   16.0609   -2.1736   -0.9094 H   0  0  0  0  0  0  0  0  0  0  0  0
   16.9675   -0.4590    3.1752 H   0  0  0  0  0  0  0  0  0  0  0  0
    8.4463    0.1918   -2.7426 H   0  0  0  0  0  0  0  0  0  0  0  0
    8.0225    0.5599   -1.0621 H   0  0  0  0  0  0  0  0  0  0  0  0
    9.3083    1.4875   -1.9000 H   0  0  0  0  0  0  0  0  0  0  0  0
    7.9287    0.8162    4.4621 H   0  0  0  0  0  0  0  0  0  0  0  0
    7.1221    2.2328    5.1458 H   0  0  0  0  0  0  0  0  0  0  0  0
    6.3634    0.6373    5.3215 H   0  0  0  0  0  0  0  0  0  0  0  0
    1.7750   -0.5329    2.3006 H   0  0  0  0  0  0  0  0  0  0  0  0
    3.1308   -1.0982    3.2969 H   0  0  0  0  0  0  0  0  0  0  0  0
    2.7852    0.6529    3.1478 H   0  0  0  0  0  0  0  0  0  0  0  0
    4.2055    0.0360   -1.1461 H   0  0  0  0  0  0  0  0  0  0  0  0
    6.1354   -1.3173   -0.4127 H   0  0  0  0  0  0  0  0  0  0  0  0
    6.0018   -0.5347   -2.7871 H   0  0  0  0  0  0  0  0  0  0  0  0
    5.3322   -2.1082   -3.2542 H   0  0  0  0  0  0  0  0  0  0  0  0
    6.9663   -2.0063   -2.5902 H   0  0  0  0  0  0  0  0  0  0  0  0
    5.0956   -3.4111    0.3041 H   0  0  0  0  0  0  0  0  0  0  0  0
    6.3069   -3.7407   -0.9318 H   0  0  0  0  0  0  0  0  0  0  0  0
    4.5946   -3.7862   -1.3557 H   0  0  0  0  0  0  0  0  0  0  0  0
    2.7400   -2.4887   -1.6594 H   0  0  0  0  0  0  0  0  0  0  0  0
    1.7032   -2.2039   -3.9026 H   0  0  0  0  0  0  0  0  0  0  0  0
    0.6675   -3.2991   -2.3347 H   0  0  0  0  0  0  0  0  0  0  0  0
    0.4894   -1.9332   -0.4789 H   0  0  0  0  0  0  0  0  0  0  0  0
   -0.6400   -0.8189   -1.2040 H   0  0  0  0  0  0  0  0  0  0  0  0
   -1.1544   -2.4568   -0.7921 H   0  0  0  0  0  0  0  0  0  0  0  0
   -1.6808   -3.5817   -2.8699 H   0  0  0  0  0  0  0  0  0  0  0  0
   -1.7392   -2.0313   -3.7077 H   0  0  0  0  0  0  0  0  0  0  0  0
   -0.7235   -3.3364   -4.3324 H   0  0  0  0  0  0  0  0  0  0  0  0
    1.4883   -1.5816   -6.0354 H   0  0  0  0  0  0  0  0  0  0  0  0
    0.9377    0.0591   -6.4261 H   0  0  0  0  0  0  0  0  0  0  0  0
    2.3670   -0.1637   -5.3953 H   0  0  0  0  0  0  0  0  0  0  0  0
   -2.5120    1.6489   -3.9364 H   0  0  0  0  0  0  0  0  0  0  0  0
   -1.4338    2.3598   -2.6971 H   0  0  0  0  0  0  0  0  0  0  0  0
   -2.9473   -0.9649   -2.0309 H   0  0  0  0  0  0  0  0  0  0  0  0
   -4.7428   -1.3523   -0.4361 H   0  0  0  0  0  0  0  0  0  0  0  0
   -5.3577    2.9107   -0.1124 H   0  0  0  0  0  0  0  0  0  0  0  0
   -3.5281    3.2843   -1.6696 H   0  0  0  0  0  0  0  0  0  0  0  0
   -6.3957   -0.5513    0.9148 H   0  0  0  0  0  0  0  0  0  0  0  0
   -8.1045   -0.4861    2.0572 H   0  0  0  0  0  0  0  0  0  0  0  0
   -9.2745    0.5422    3.9318 H   0  0  0  0  0  0  0  0  0  0  0  0
   -7.5541    0.8572    3.9366 H   0  0  0  0  0  0  0  0  0  0  0  0
   -7.8376    3.1652    3.3224 H   0  0  0  0  0  0  0  0  0  0  0  0
   -8.8260    2.7686    4.7095 H   0  0  0  0  0  0  0  0  0  0  0  0
   -9.8556    3.1979    1.8536 H   0  0  0  0  0  0  0  0  0  0  0  0
  -10.0432    4.2643    3.2325 H   0  0  0  0  0  0  0  0  0  0  0  0
  -11.1748    1.5372    3.3343 H   0  0  0  0  0  0  0  0  0  0  0  0
  -13.4005    1.8068    4.0504 H   0  0  0  0  0  0  0  0  0  0  0  0
  -14.3117    2.6102    2.8739 H   0  0  0  0  0  0  0  0  0  0  0  0
   -9.7219    1.4118    0.5620 H   0  0  0  0  0  0  0  0  0  0  0  0
  -12.1789    0.6650    0.2971 H   0  0  0  0  0  0  0  0  0  0  0  0
  -10.2430    0.3075   -1.3247 H   0  0  0  0  0  0  0  0  0  0  0  0
   -9.6785   -2.0503   -0.7216 H   0  0  0  0  0  0  0  0  0  0  0  0
   -9.9239   -1.8285   -2.4540 H   0  0  0  0  0  0  0  0  0  0  0  0
  -11.1829   -2.5979   -1.4806 H   0  0  0  0  0  0  0  0  0  0  0  0
  -12.8121   -0.8811   -2.4482 H   0  0  0  0  0  0  0  0  0  0  0  0
  -11.5331   -0.0247   -3.3058 H   0  0  0  0  0  0  0  0  0  0  0  0
  -12.5464    0.8545   -2.1577 H   0  0  0  0  0  0  0  0  0  0  0  0
  -12.2741   -2.0550    1.1879 H   0  0  0  0  0  0  0  0  0  0  0  0
  -14.0348   -3.3922    0.7342 H   0  0  0  0  0  0  0  0  0  0  0  0
  -14.9629   -2.3170    1.7865 H   0  0  0  0  0  0  0  0  0  0  0  0
  -16.0629   -3.9931   -0.0219 H   0  0  0  0  0  0  0  0  0  0  0  0
  -15.8207   -2.6540   -1.1302 H   0  0  0  0  0  0  0  0  0  0  0  0
  -17.4036   -2.5638    1.5032 H   0  0  0  0  0  0  0  0  0  0  0  0
  -18.0913   -2.7833   -0.0988 H   0  0  0  0  0  0  0  0  0  0  0  0
  -16.6186   -0.2910    0.8842 H   0  0  0  0  0  0  0  0  0  0  0  0
  -17.1517   -0.5361   -0.7797 H   0  0  0  0  0  0  0  0  0  0  0  0
  -18.9446   -0.4339    1.7040 H   0  0  0  0  0  0  0  0  0  0  0  0
  -19.5259   -0.7850    0.0593 H   0  0  0  0  0  0  0  0  0  0  0  0
  -18.3085    4.3597    0.9055 H   0  0  0  0  0  0  0  0  0  0  0  0
  -19.3385    3.8176   -1.5093 H   0  0  0  0  0  0  0  0  0  0  0  0
  1  2  1  0
  2  3  1  0
  3  4  1  0
  3  5  1  0
  5  6  1  0
  6  7  1  0
  7  8  1  0
  8  9  2  0
  8 10  1  0
 10 11  1  0
 11 12  1  0
 12 13  1  0
 13 14  1  0
 14 15  1  0
 15 16  1  0
 16 17  1  0
 16 18  1  0
 18 19  2  0
 18 20  1  0
 20 21  1  0
 21 22  1  0
 21 23  1  0
 23 24  1  0
 24 25  2  0
 25 26  1  0
 26 27  2  0
 27 28  1  0
 28 29  2  0
 23 30  1  0
 15 31  1  0
 31 32  1  0
  6 33  1  0
 33 34  1  0
  5 35  1  0
 35 36  1  0
 35 37  1  0
 37 38  2  0
 37 39  1  0
 39 40  1  0
 40 41  1  0
 40 42  1  0
 39 43  1  0
 43 44  1  0
 44 45  2  0
 44 46  1  0
 46 47  1  0
 47 48  1  0
 47 49  1  0
 46 50  1  0
 50 51  1  0
 50 52  1  0
 52 53  2  0
 52 54  1  0
 54 55  1  0
 55 56  1  0
 56 57  1  0
 57 58  2  0
 58 59  1  0
 59 60  2  0
 60 61  1  0
 59 62  1  0
 62 63  1  0
 63 64  2  0
 63 65  1  0
 65 66  1  0
 66 67  1  0
 67 68  1  0
 68 69  1  0
 69 70  1  0
 70 71  2  0
 70 72  1  0
 65 73  1  0
 73 74  1  0
 74 75  2  0
 74 76  1  0
 76 77  1  0
 77 78  1  0
 77 79  1  0
 76 80  1  0
 80 81  1  0
 81 82  2  0
 81 83  1  0
 83 84  1  0
 84 85  1  0
 85 86  1  0
 86 87  1  0
 87 88  1  0
 88 89  1  0
 89 90  2  0
 89 91  1  0
 91 92  2  0
 92 93  1  0
 93 94  2  0
 14 10  1  0
 29 24  1  0
 61 56  2  0
 93 88  1  0
  1 95  1  0
  1 96  1  0
  1 97  1  0
  2 98  1  0
  2 99  1  0
  3100  1  1
  4101  1  0
  4102  1  0
  4103  1  0
  5104  1  6
  6105  1  1
  7106  1  0
  7107  1  0
 11108  1  0
 11109  1  0
 12110  1  0
 12111  1  0
 13112  1  0
 13113  1  0
 14114  1  1
 15115  1  1
 16116  1  6
 17117  1  0
 17118  1  0
 17119  1  0
 20120  1  0
 21121  1  1
 22122  1  0
 22123  1  0
 22124  1  0
 23125  1  1
 25126  1  0
 26127  1  0
 27128  1  0
 28129  1  0
 29130  1  0
 30131  1  0
 32132  1  0
 32133  1  0
 32134  1  0
 34135  1  0
 34136  1  0
 34137  1  0
 36138  1  0
 36139  1  0
 36140  1  0
 39141  1  6
 40142  1  0
 41143  1  0
 41144  1  0
 41145  1  0
 42146  1  0
 42147  1  0
 42148  1  0
 43149  1  0
 46150  1  6
 47151  1  0
 48152  1  0
 48153  1  0
 48154  1  0
 49155  1  0
 49156  1  0
 49157  1  0
 51158  1  0
 51159  1  0
 51160  1  0
 55161  1  0
 55162  1  0
 57163  1  0
 58164  1  0
 60165  1  0
 61166  1  0
 62167  1  0
 65168  1  1
 66169  1  0
 66170  1  0
 67171  1  0
 67172  1  0
 68173  1  0
 68174  1  0
 69175  1  0
 72176  1  0
 72177  1  0
 73178  1  0
 76179  1  6
 77180  1  0
 78181  1  0
 78182  1  0
 78183  1  0
 79184  1  0
 79185  1  0
 79186  1  0
 80187  1  0
 83188  1  0
 83189  1  0
 84190  1  0
 84191  1  0
 85192  1  0
 85193  1  0
 86194  1  0
 86195  1  0
 87196  1  0
 87197  1  0
 91198  1  0
 92199  1  0
M  END
$$$$

     RDKit          3D

199202  0  0  0  0  0  0  0  0999 V2000
   -6.9626   -1.0360   -4.1766 C   0  0  0  0  0  0  0  0  0  0  0  0
   -6.0096   -0.5490   -3.0931 C   0  0  0  0  0  0  0  0  0  0  0  0
   -6.5364    0.6784   -2.3005 C   0  0  2  0  0  0  0  0  0  0  0  0
   -6.7247    1.8539   -3.2754 C   0  0  0  0  0  0  0  0  0  0  0  0
   -5.5660    1.0749   -1.1378 C   0  0  1  0  0  0  0  0  0  0  0  0
   -5.9842    2.2939   -0.2133 C   0  0  1  0  0  0  0  0  0  0  0  0
   -7.1887    2.0969    0.7308 C   0  0  0  0  0  0  0  0  0  0  0  0
   -8.5208    2.0049    0.0188 C   0  0  0  0  0  0  0  0  0  0  0  0
   -8.7044    2.6182   -1.0341 O   0  0  0  0  0  0  0  0  0  0  0  0
   -9.5430    1.2764    0.5983 N   0  0  0  0  0  0  0  0  0  0  0  0
   -9.4575    0.3841    1.7483 C   0  0  0  0  0  0  0  0  0  0  0  0
  -10.4308   -0.7351    1.4224 C   0  0  0  0  0  0  0  0  0  0  0  0
  -11.5480   -0.0047    0.6924 C   0  0  0  0  0  0  0  0  0  0  0  0
  -10.8083    1.0572   -0.1409 C   0  0  1  0  0  0  0  0  0  0  0  0
  -11.6282    2.3609   -0.4218 C   0  0  1  0  0  0  0  0  0  0  0  0
  -12.3813    2.3348   -1.7721 C   0  0  1  0  0  0  0  0  0  0  0  0
  -11.4310    2.4946   -2.9597 C   0  0  0  0  0  0  0  0  0  0  0  0
  -13.2407    1.0871   -1.9357 C   0  0  0  0  0  0  0  0  0  0  0  0
  -13.0469    0.2479   -2.8094 O   0  0  0  0  0  0  0  0  0  0  0  0
  -14.2525    0.9816   -1.0104 N   0  0  0  0  0  0  0  0  0  0  0  0
  -15.2894   -0.0488   -1.0854 C   0  0  2  0  0  0  0  0  0  0  0  0
  -16.4574    0.4496   -1.9407 C   0  0  0  0  0  0  0  0  0  0  0  0
  -15.7079   -0.5718    0.3159 C   0  0  1  0  0  0  0  0  0  0  0  0
  -16.3565    0.4543    1.2264 C   0  0  0  0  0  0  0  0  0  0  0  0
  -17.7287    0.7443    1.1413 C   0  0  0  0  0  0  0  0  0  0  0  0
  -18.3100    1.6923    1.9850 C   0  0  0  0  0  0  0  0  0  0  0  0
  -17.5287    2.3630    2.9226 C   0  0  0  0  0  0  0  0  0  0  0  0
  -16.1670    2.0868    3.0193 C   0  0  0  0  0  0  0  0  0  0  0  0
  -15.5846    1.1394    2.1758 C   0  0  0  0  0  0  0  0  0  0  0  0
  -16.5609   -1.7152    0.1834 O   0  0  0  0  0  0  0  0  0  0  0  0
  -12.6030    2.6517    0.6088 O   0  0  0  0  0  0  0  0  0  0  0  0
  -12.0442    3.3432    1.7212 C   0  0  0  0  0  0  0  0  0  0  0  0
   -4.8950    2.6328    0.6846 O   0  0  0  0  0  0  0  0  0  0  0  0
   -3.8556    3.3869    0.0766 C   0  0  0  0  0  0  0  0  0  0  0  0
   -5.1040   -0.1006   -0.3281 N   0  0  0  0  0  0  0  0  0  0  0  0
   -6.1052   -0.9431    0.3012 C   0  0  0  0  0  0  0  0  0  0  0  0
   -3.7386   -0.3904   -0.2919 C   0  0  0  0  0  0  0  0  0  0  0  0
   -2.9448    0.1600   -1.0773 O   0  0  0  0  0  0  0  0  0  0  0  0
   -3.1745   -1.4127    0.7428 C   0  0  1  0  0  0  0  0  0  0  0  0
   -3.5550   -2.8912    0.4938 C   0  0  0  0  0  0  0  0  0  0  0  0
   -3.0724   -3.4168   -0.8606 C   0  0  0  0  0  0  0  0  0  0  0  0
   -3.0616   -3.7941    1.6301 C   0  0  0  0  0  0  0  0  0  0  0  0
   -1.7090   -1.2629    0.6780 N   0  0  0  0  0  0  0  0  0  0  0  0
   -0.9489   -0.7470    1.7064 C   0  0  0  0  0  0  0  0  0  0  0  0
   -1.4481   -0.3997    2.7769 O   0  0  0  0  0  0  0  0  0  0  0  0
    0.5697   -0.5650    1.4032 C   0  0  1  0  0  0  0  0  0  0  0  0
    1.1575   -1.6056    0.3928 C   0  0  0  0  0  0  0  0  0  0  0  0
    1.1423   -3.0174    0.9870 C   0  0  0  0  0  0  0  0  0  0  0  0
    2.5929   -1.2932   -0.0513 C   0  0  0  0  0  0  0  0  0  0  0  0
    0.9068    0.8307    1.0484 N   0  0  0  0  0  0  0  0  0  0  0  0
    0.2127    1.4614   -0.0643 C   0  0  0  0  0  0  0  0  0  0  0  0
    2.0624    1.3697    1.5979 C   0  0  0  0  0  0  0  0  0  0  0  0
    2.6129    0.9212    2.5956 O   0  0  0  0  0  0  0  0  0  0  0  0
    2.5691    2.3996    0.8606 O   0  0  0  0  0  0  0  0  0  0  0  0
    3.8595    2.8802    1.2807 C   0  0  0  0  0  0  0  0  0  0  0  0
    4.9725    1.8960    0.9948 C   0  0  0  0  0  0  0  0  0  0  0  0
    5.0797    1.2603   -0.2459 C   0  0  0  0  0  0  0  0  0  0  0  0
    6.0371    0.2547   -0.4533 C   0  0  0  0  0  0  0  0  0  0  0  0
    6.9208   -0.1082    0.5615 C   0  0  0  0  0  0  0  0  0  0  0  0
    6.8824    0.5942    1.7684 C   0  0  0  0  0  0  0  0  0  0  0  0
    5.9105    1.5823    1.9851 C   0  0  0  0  0  0  0  0  0  0  0  0
    7.8366   -1.1799    0.4663 N   0  0  0  0  0  0  0  0  0  0  0  0
    7.8648   -2.1744   -0.5047 C   0  0  0  0  0  0  0  0  0  0  0  0
    7.1140   -2.2501   -1.4742 O   0  0  0  0  0  0  0  0  0  0  0  0
    8.8620   -3.3140   -0.1511 C   0  0  1  0  0  0  0  0  0  0  0  0
    9.0346   -4.2951   -1.3257 C   0  0  0  0  0  0  0  0  0  0  0  0
    9.6440   -5.6489   -0.9320 C   0  0  0  0  0  0  0  0  0  0  0  0
   11.1360   -5.7587   -1.2195 C   0  0  0  0  0  0  0  0  0  0  0  0
   11.3985   -5.8315   -2.6447 N   0  0  0  0  0  0  0  0  0  0  0  0
   12.6878   -5.8092   -3.0958 C   0  0  0  0  0  0  0  0  0  0  0  0
   13.6844   -5.5860   -2.4242 O   0  0  0  0  0  0  0  0  0  0  0  0
   12.7613   -6.0814   -4.4221 N   0  0  0  0  0  0  0  0  0  0  0  0
   10.1241   -2.7179    0.2937 N   0  0  0  0  0  0  0  0  0  0  0  0
   10.8997   -3.2254    1.3150 C   0  0  0  0  0  0  0  0  0  0  0  0
   10.6477   -4.2931    1.8664 O   0  0  0  0  0  0  0  0  0  0  0  0
   12.0001   -2.2555    1.8133 C   0  0  1  0  0  0  0  0  0  0  0  0
   13.2424   -2.9676    2.3882 C   0  0  0  0  0  0  0  0  0  0  0  0
   14.0698   -3.7097    1.3365 C   0  0  0  0  0  0  0  0  0  0  0  0
   14.1336   -1.9776    3.1498 C   0  0  0  0  0  0  0  0  0  0  0  0
   12.3330   -1.2498    0.7953 N   0  0  0  0  0  0  0  0  0  0  0  0
   11.9300    0.0577    0.9165 C   0  0  0  0  0  0  0  0  0  0  0  0
   11.2176    0.4500    1.8377 O   0  0  0  0  0  0  0  0  0  0  0  0
   12.4239    0.9671   -0.1909 C   0  0  0  0  0  0  0  0  0  0  0  0
   12.8059    2.3323    0.3767 C   0  0  0  0  0  0  0  0  0  0  0  0
   13.3160    3.3248   -0.6699 C   0  0  0  0  0  0  0  0  0  0  0  0
   14.6089    2.8747   -1.3567 C   0  0  0  0  0  0  0  0  0  0  0  0
   15.1984    3.9453   -2.2821 C   0  0  0  0  0  0  0  0  0  0  0  0
   15.7909    5.0506   -1.5574 N   0  0  0  0  0  0  0  0  0  0  0  0
   15.1997    6.2518   -1.3441 C   0  0  0  0  0  0  0  0  0  0  0  0
   14.0986    6.6404   -1.6915 O   0  0  0  0  0  0  0  0  0  0  0  0
   16.1415    7.0642   -0.5692 C   0  0  0  0  0  0  0  0  0  0  0  0
   17.2216    6.3215   -0.3355 C   0  0  0  0  0  0  0  0  0  0  0  0
   17.0129    5.0165   -0.9698 C   0  0  0  0  0  0  0  0  0  0  0  0
   17.8236    4.1095   -0.9393 O   0  0  0  0  0  0  0  0  0  0  0  0
   -7.0489   -0.3147   -4.9932 H   0  0  0  0  0  0  0  0  0  0  0  0
   -7.9606   -1.2193   -3.7661 H   0  0  0  0  0  0  0  0  0  0  0  0
   -6.5947   -1.9741   -4.6057 H   0  0  0  0  0  0  0  0  0  0  0  0
   -5.0388   -0.3124   -3.5456 H   0  0  0  0  0  0  0  0  0  0  0  0
   -5.8366   -1.3921   -2.4211 H   0  0  0  0  0  0  0  0  0  0  0  0
   -7.5117    0.4054   -1.8843 H   0  0  0  0  0  0  0  0  0  0  0  0
   -6.9790    2.7887   -2.7744 H   0  0  0  0  0  0  0  0  0  0  0  0
   -7.5361    1.6529   -3.9824 H   0  0  0  0  0  0  0  0  0  0  0  0
   -5.8110    2.0363   -3.8521 H   0  0  0  0  0  0  0  0  0  0  0  0
   -4.6784    1.4381   -1.6650 H   0  0  0  0  0  0  0  0  0  0  0  0
   -6.1779    3.1723   -0.8398 H   0  0  0  0  0  0  0  0  0  0  0  0
   -6.9963    1.2789    1.4198 H   0  0  0  0  0  0  0  0  0  0  0  0
   -7.2639    2.9808    1.3808 H   0  0  0  0  0  0  0  0  0  0  0  0
   -8.4586   -0.0029    1.9271 H   0  0  0  0  0  0  0  0  0  0  0  0
   -9.7784    0.9463    2.6295 H   0  0  0  0  0  0  0  0  0  0  0  0
  -10.7808   -1.2628    2.3137 H   0  0  0  0  0  0  0  0  0  0  0  0
   -9.9588   -1.4628    0.7490 H   0  0  0  0  0  0  0  0  0  0  0  0
  -12.2187    0.4368    1.4332 H   0  0  0  0  0  0  0  0  0  0  0  0
  -12.1349   -0.6857    0.0687 H   0  0  0  0  0  0  0  0  0  0  0  0
  -10.4895    0.6065   -1.0903 H   0  0  0  0  0  0  0  0  0  0  0  0
  -10.9556    3.2269   -0.4708 H   0  0  0  0  0  0  0  0  0  0  0  0
  -13.0745    3.1865   -1.7974 H   0  0  0  0  0  0  0  0  0  0  0  0
  -10.8400    3.4115   -2.8662 H   0  0  0  0  0  0  0  0  0  0  0  0
  -11.9948    2.5598   -3.8968 H   0  0  0  0  0  0  0  0  0  0  0  0
  -10.7382    1.6515   -3.0567 H   0  0  0  0  0  0  0  0  0  0  0  0
  -14.3795    1.7554   -0.3597 H   0  0  0  0  0  0  0  0  0  0  0  0
  -14.8669   -0.9085   -1.6253 H   0  0  0  0  0  0  0  0  0  0  0  0
  -16.1238    0.6591   -2.9634 H   0  0  0  0  0  0  0  0  0  0  0  0
  -17.2583   -0.2943   -1.9983 H   0  0  0  0  0  0  0  0  0  0  0  0
  -16.8750    1.3827   -1.5485 H   0  0  0  0  0  0  0  0  0  0  0  0
  -14.8044   -0.9434    0.8146 H   0  0  0  0  0  0  0  0  0  0  0  0
  -18.3543    0.2332    0.4127 H   0  0  0  0  0  0  0  0  0  0  0  0
  -19.3732    1.9086    1.9065 H   0  0  0  0  0  0  0  0  0  0  0  0
  -17.9836    3.1024    3.5788 H   0  0  0  0  0  0  0  0  0  0  0  0
  -15.5584    2.6092    3.7526 H   0  0  0  0  0  0  0  0  0  0  0  0
  -14.5188    0.9421    2.2658 H   0  0  0  0  0  0  0  0  0  0  0  0
  -16.9526   -1.8760    1.0597 H   0  0  0  0  0  0  0  0  0  0  0  0
  -11.6092    4.2973    1.4094 H   0  0  0  0  0  0  0  0  0  0  0  0
  -12.8503    3.5433    2.4332 H   0  0  0  0  0  0  0  0  0  0  0  0
  -11.2928    2.7327    2.2263 H   0  0  0  0  0  0  0  0  0  0  0  0
   -3.3406    2.8132   -0.6980 H   0  0  0  0  0  0  0  0  0  0  0  0
   -3.1225    3.6378    0.8518 H   0  0  0  0  0  0  0  0  0  0  0  0
   -4.2478    4.3214   -0.3412 H   0  0  0  0  0  0  0  0  0  0  0  0
   -7.0993   -0.5117    0.2039 H   0  0  0  0  0  0  0  0  0  0  0  0
   -5.8681   -1.0952    1.3562 H   0  0  0  0  0  0  0  0  0  0  0  0
   -6.1440   -1.9013   -0.2204 H   0  0  0  0  0  0  0  0  0  0  0  0
   -3.5217   -1.0950    1.7323 H   0  0  0  0  0  0  0  0  0  0  0  0
   -4.6404   -2.9983    0.5050 H   0  0  0  0  0  0  0  0  0  0  0  0
   -3.4685   -2.8106   -1.6818 H   0  0  0  0  0  0  0  0  0  0  0  0
   -1.9802   -3.4175   -0.9289 H   0  0  0  0  0  0  0  0  0  0  0  0
   -3.4201   -4.4441   -1.0170 H   0  0  0  0  0  0  0  0  0  0  0  0
   -1.9716   -3.8563    1.6666 H   0  0  0  0  0  0  0  0  0  0  0  0
   -3.4461   -4.8138    1.5034 H   0  0  0  0  0  0  0  0  0  0  0  0
   -3.4164   -3.4278    2.5998 H   0  0  0  0  0  0  0  0  0  0  0  0
   -1.3739   -1.0675   -0.2589 H   0  0  0  0  0  0  0  0  0  0  0  0
    1.0512   -0.7837    2.3678 H   0  0  0  0  0  0  0  0  0  0  0  0
    0.5562   -1.6194   -0.5248 H   0  0  0  0  0  0  0  0  0  0  0  0
    1.5498   -3.7455    0.2748 H   0  0  0  0  0  0  0  0  0  0  0  0
    1.7469   -3.0648    1.8993 H   0  0  0  0  0  0  0  0  0  0  0  0
    0.1279   -3.3372    1.2360 H   0  0  0  0  0  0  0  0  0  0  0  0
    2.6308   -0.3649   -0.6290 H   0  0  0  0  0  0  0  0  0  0  0  0
    2.9806   -2.0843   -0.7024 H   0  0  0  0  0  0  0  0  0  0  0  0
    3.2643   -1.2074    0.8100 H   0  0  0  0  0  0  0  0  0  0  0  0
    0.4747    2.5183   -0.1534 H   0  0  0  0  0  0  0  0  0  0  0  0
    0.4802    0.9491   -0.9927 H   0  0  0  0  0  0  0  0  0  0  0  0
   -0.8670    1.4028    0.0965 H   0  0  0  0  0  0  0  0  0  0  0  0
    4.0623    3.8012    0.7226 H   0  0  0  0  0  0  0  0  0  0  0  0
    3.8161    3.1556    2.3411 H   0  0  0  0  0  0  0  0  0  0  0  0
    4.3845    1.5020   -1.0486 H   0  0  0  0  0  0  0  0  0  0  0  0
    6.0526   -0.2346   -1.4245 H   0  0  0  0  0  0  0  0  0  0  0  0
    7.5719    0.3603    2.5760 H   0  0  0  0  0  0  0  0  0  0  0  0
    5.8696    2.0711    2.9560 H   0  0  0  0  0  0  0  0  0  0  0  0
    8.4220   -1.3371    1.2797 H   0  0  0  0  0  0  0  0  0  0  0  0
    8.4181   -3.8480    0.7006 H   0  0  0  0  0  0  0  0  0  0  0  0
    8.0368   -4.5142   -1.7312 H   0  0  0  0  0  0  0  0  0  0  0  0
    9.5975   -3.8230   -2.1416 H   0  0  0  0  0  0  0  0  0  0  0  0
    9.1243   -6.4388   -1.4879 H   0  0  0  0  0  0  0  0  0  0  0  0
    9.4584   -5.8576    0.1280 H   0  0  0  0  0  0  0  0  0  0  0  0
   11.6948   -4.9167   -0.8029 H   0  0  0  0  0  0  0  0  0  0  0  0
   11.5350   -6.6747   -0.7691 H   0  0  0  0  0  0  0  0  0  0  0  0
   10.8086   -6.4594   -3.1769 H   0  0  0  0  0  0  0  0  0  0  0  0
   13.6953   -5.9544   -4.7912 H   0  0  0  0  0  0  0  0  0  0  0  0
   12.0327   -5.6771   -4.9931 H   0  0  0  0  0  0  0  0  0  0  0  0
   10.3831   -1.8106   -0.0739 H   0  0  0  0  0  0  0  0  0  0  0  0
   11.5181   -1.7343    2.6510 H   0  0  0  0  0  0  0  0  0  0  0  0
   12.9040   -3.7170    3.1180 H   0  0  0  0  0  0  0  0  0  0  0  0
   13.4825   -4.4887    0.8445 H   0  0  0  0  0  0  0  0  0  0  0  0
   14.9274   -4.1973    1.8094 H   0  0  0  0  0  0  0  0  0  0  0  0
   14.4674   -3.0315    0.5723 H   0  0  0  0  0  0  0  0  0  0  0  0
   14.5499   -1.2128    2.4808 H   0  0  0  0  0  0  0  0  0  0  0  0
   13.5676   -1.4654    3.9373 H   0  0  0  0  0  0  0  0  0  0  0  0
   14.9731   -2.4927    3.6281 H   0  0  0  0  0  0  0  0  0  0  0  0
   12.8812   -1.5453   -0.0052 H   0  0  0  0  0  0  0  0  0  0  0  0
   11.6199    1.0663   -0.9294 H   0  0  0  0  0  0  0  0  0  0  0  0
   13.2832    0.5023   -0.6858 H   0  0  0  0  0  0  0  0  0  0  0  0
   11.9332    2.7782    0.8696 H   0  0  0  0  0  0  0  0  0  0  0  0
   13.5672    2.2072    1.1573 H   0  0  0  0  0  0  0  0  0  0  0  0
   13.4858    4.2828   -0.1610 H   0  0  0  0  0  0  0  0  0  0  0  0
   12.5405    3.5010   -1.4241 H   0  0  0  0  0  0  0  0  0  0  0  0
   14.4031    1.9863   -1.9635 H   0  0  0  0  0  0  0  0  0  0  0  0
   15.3495    2.5847   -0.6017 H   0  0  0  0  0  0  0  0  0  0  0  0
   15.9889    3.4860   -2.8865 H   0  0  0  0  0  0  0  0  0  0  0  0
   14.4283    4.3257   -2.9628 H   0  0  0  0  0  0  0  0  0  0  0  0
   15.9385    8.0739   -0.2579 H   0  0  0  0  0  0  0  0  0  0  0  0
   18.1144    6.5810    0.2052 H   0  0  0  0  0  0  0  0  0  0  0  0
  1  2  1  0
  2  3  1  0
  3  4  1  0
  3  5  1  0
  5  6  1  0
  6  7  1  0
  7  8  1  0
  8  9  2  0
  8 10  1  0
 10 11  1  0
 11 12  1  0
 12 13  1  0
 13 14  1  0
 14 15  1  0
 15 16  1  0
 16 17  1  0
 16 18  1  0
 18 19  2  0
 18 20  1  0
 20 21  1  0
 21 22  1  0
 21 23  1  0
 23 24  1  0
 24 25  2  0
 25 26  1  0
 26 27  2  0
 27 28  1  0
 28 29  2  0
 23 30  1  0
 15 31  1  0
 31 32  1  0
  6 33  1  0
 33 34  1  0
  5 35  1  0
 35 36  1  0
 35 37  1  0
 37 38  2  0
 37 39  1  0
 39 40  1  0
 40 41  1  0
 40 42  1  0
 39 43  1  0
 43 44  1  0
 44 45  2  0
 44 46  1  0
 46 47  1  0
 47 48  1  0
 47 49  1  0
 46 50  1  0
 50 51  1  0
 50 52  1  0
 52 53  2  0
 52 54  1  0
 54 55  1  0
 55 56  1  0
 56 57  1  0
 57 58  2  0
 58 59  1  0
 59 60  2  0
 60 61  1  0
 59 62  1  0
 62 63  1  0
 63 64  2  0
 63 65  1  0
 65 66  1  0
 66 67  1  0
 67 68  1  0
 68 69  1  0
 69 70  1  0
 70 71  2  0
 70 72  1  0
 65 73  1  0
 73 74  1  0
 74 75  2  0
 74 76  1  0
 76 77  1  0
 77 78  1  0
 77 79  1  0
 76 80  1  0
 80 81  1  0
 81 82  2  0
 81 83  1  0
 83 84  1  0
 84 85  1  0
 85 86  1  0
 86 87  1  0
 87 88  1  0
 88 89  1  0
 89 90  2  0
 89 91  1  0
 91 92  2  0
 92 93  1  0
 93 94  2  0
 14 10  1  0
 29 24  1  0
 61 56  2  0
 93 88  1  0
  1 95  1  0
  1 96  1  0
  1 97  1  0
  2 98  1  0
  2 99  1  0
  3100  1  1
  4101  1  0
  4102  1  0
  4103  1  0
  5104  1  6
  6105  1  6
  7106  1  0
  7107  1  0
 11108  1  0
 11109  1  0
 12110  1  0
 12111  1  0
 13112  1  0
 13113  1  0
 14114  1  6
 15115  1  6
 16116  1  1
 17117  1  0
 17118  1  0
 17119  1  0
 20120  1  0
 21121  1  6
 22122  1  0
 22123  1  0
 22124  1  0
 23125  1  1
 25126  1  0
 26127  1  0
 27128  1  0
 28129  1  0
 29130  1  0
 30131  1  0
 32132  1  0
 32133  1  0
 32134  1  0
 34135  1  0
 34136  1  0
 34137  1  0
 36138  1  0
 36139  1  0
 36140  1  0
 39141  1  1
 40142  1  0
 41143  1  0
 41144  1  0
 41145  1  0
 42146  1  0
 42147  1  0
 42148  1  0
 43149  1  0
 46150  1  1
 47151  1  0
 48152  1  0
 48153  1  0
 48154  1  0
 49155  1  0
 49156  1  0
 49157  1  0
 51158  1  0
 51159  1  0
 51160  1  0
 55161  1  0
 55162  1  0
 57163  1  0
 58164  1  0
 60165  1  0
 61166  1  0
 62167  1  0
 65168  1  1
 66169  1  0
 66170  1  0
 67171  1  0
 67172  1  0
 68173  1  0
 68174  1  0
 69175  1  0
 72176  1  0
 72177  1  0
 73178  1  0
 76179  1  1
 77180  1  0
 78181  1  0
 78182  1  0
 78183  1  0
 79184  1  0
 79185  1  0
 79186  1  0
 80187  1  0
 83188  1  0
 83189  1  0
 84190  1  0
 84191  1  0
 85192  1  0
 85193  1  0
 86194  1  0
 86195  1  0
 87196  1  0
 87197  1  0
 91198  1  0
 92199  1  0
M  END
$$$$

     RDKit          3D

199202  0  0  0  0  0  0  0  0999 V2000
  -10.2895    0.7275   -3.0471 C   0  0  0  0  0  0  0  0  0  0  0  0
   -9.4437   -0.3610   -2.3869 C   0  0  0  0  0  0  0  0  0  0  0  0
   -8.1810    0.1880   -1.6858 C   0  0  2  0  0  0  0  0  0  0  0  0
   -7.2797    0.9424   -2.6815 C   0  0  0  0  0  0  0  0  0  0  0  0
   -7.3216   -0.8255   -0.8461 C   0  0  1  0  0  0  0  0  0  0  0  0
   -7.9807   -1.6429    0.3283 C   0  0  1  0  0  0  0  0  0  0  0  0
   -8.2338   -0.7914    1.5890 C   0  0  0  0  0  0  0  0  0  0  0  0
   -9.3087    0.2698    1.4510 C   0  0  0  0  0  0  0  0  0  0  0  0
  -10.2888    0.0938    0.7183 O   0  0  0  0  0  0  0  0  0  0  0  0
   -9.1604    1.4292    2.1907 N   0  0  0  0  0  0  0  0  0  0  0  0
   -8.1791    1.6004    3.2578 C   0  0  0  0  0  0  0  0  0  0  0  0
   -8.6396    2.8070    4.0566 C   0  0  0  0  0  0  0  0  0  0  0  0
   -9.5823    3.5497    3.1215 C   0  0  0  0  0  0  0  0  0  0  0  0
  -10.2354    2.4341    2.2991 C   0  0  1  0  0  0  0  0  0  0  0  0
  -10.8788    2.8999    0.9514 C   0  0  1  0  0  0  0  0  0  0  0  0
  -12.4186    2.9930    1.0355 C   0  0  1  0  0  0  0  0  0  0  0  0
  -13.0402    3.1900   -0.3511 C   0  0  0  0  0  0  0  0  0  0  0  0
  -13.0904    1.8007    1.7132 C   0  0  0  0  0  0  0  0  0  0  0  0
  -13.7643    1.9434    2.7356 O   0  0  0  0  0  0  0  0  0  0  0  0
  -12.9080    0.5741    1.1129 N   0  0  0  0  0  0  0  0  0  0  0  0
  -13.5976   -0.6323    1.6032 C   0  0  2  0  0  0  0  0  0  0  0  0
  -12.5721   -1.6577    2.0851 C   0  0  0  0  0  0  0  0  0  0  0  0
  -14.5204   -1.2308    0.4962 C   0  0  1  0  0  0  0  0  0  0  0  0
  -15.6487   -0.3336   -0.0138 C   0  0  0  0  0  0  0  0  0  0  0  0
  -16.1184   -0.4555   -1.3341 C   0  0  0  0  0  0  0  0  0  0  0  0
  -17.1556    0.3538   -1.8113 C   0  0  0  0  0  0  0  0  0  0  0  0
  -17.7526    1.2908   -0.9732 C   0  0  0  0  0  0  0  0  0  0  0  0
  -17.3255    1.4094    0.3445 C   0  0  0  0  0  0  0  0  0  0  0  0
  -16.2937    0.5956    0.8223 C   0  0  0  0  0  0  0  0  0  0  0  0
  -13.7025   -1.6431   -0.6146 O   0  0  0  0  0  0  0  0  0  0  0  0
  -10.4000    4.2135    0.5873 O   0  0  0  0  0  0  0  0  0  0  0  0
   -9.5073    4.1923   -0.5207 C   0  0  0  0  0  0  0  0  0  0  0  0
   -9.1225   -2.3798   -0.1157 O   0  0  0  0  0  0  0  0  0  0  0  0
   -9.4226   -3.5260    0.6689 C   0  0  0  0  0  0  0  0  0  0  0  0
   -6.4469   -1.7175   -1.6726 N   0  0  0  0  0  0  0  0  0  0  0  0
   -7.0940   -2.6570   -2.5765 C   0  0  0  0  0  0  0  0  0  0  0  0
   -5.1030   -1.8222   -1.3099 C   0  0  0  0  0  0  0  0  0  0  0  0
   -4.7261   -1.3841   -0.2121 O   0  0  0  0  0  0  0  0  0  0  0  0
   -4.0774   -2.5965   -2.2215 C   0  0  1  0  0  0  0  0  0  0  0  0
   -4.1457   -2.4222   -3.7612 C   0  0  0  0  0  0  0  0  0  0  0  0
   -3.1389   -3.3372   -4.4751 C   0  0  0  0  0  0  0  0  0  0  0  0
   -4.0456   -0.9947   -4.2942 C   0  0  0  0  0  0  0  0  0  0  0  0
   -2.7239   -2.4884   -1.6313 N   0  0  0  0  0  0  0  0  0  0  0  0
   -2.0352   -1.2811   -1.5596 C   0  0  0  0  0  0  0  0  0  0  0  0
   -2.4160   -0.2593   -2.1243 O   0  0  0  0  0  0  0  0  0  0  0  0
   -0.7201   -1.3571   -0.7206 C   0  0  1  0  0  0  0  0  0  0  0  0
    0.5306   -1.8628   -1.5053 C   0  0  0  0  0  0  0  0  0  0  0  0
    0.5315   -1.4927   -2.9895 C   0  0  0  0  0  0  0  0  0  0  0  0
    0.7223   -3.3770   -1.3437 C   0  0  0  0  0  0  0  0  0  0  0  0
   -0.3991   -0.1222    0.0354 N   0  0  0  0  0  0  0  0  0  0  0  0
   -0.0743    1.0949   -0.7016 C   0  0  0  0  0  0  0  0  0  0  0  0
    0.0487   -0.2812    1.3436 C   0  0  0  0  0  0  0  0  0  0  0  0
   -0.0414   -1.3302    1.9731 O   0  0  0  0  0  0  0  0  0  0  0  0
    0.6522    0.8346    1.8310 O   0  0  0  0  0  0  0  0  0  0  0  0
    1.4092    0.6515    3.0343 C   0  0  0  0  0  0  0  0  0  0  0  0
    2.8275    0.3191    2.6530 C   0  0  0  0  0  0  0  0  0  0  0  0
    3.7600    1.3338    2.3989 C   0  0  0  0  0  0  0  0  0  0  0  0
    5.0509    1.0263    1.9676 C   0  0  0  0  0  0  0  0  0  0  0  0
    5.4327   -0.3031    1.7574 C   0  0  0  0  0  0  0  0  0  0  0  0
    4.5001   -1.3195    1.9954 C   0  0  0  0  0  0  0  0  0  0  0  0
    3.2178   -1.0128    2.4535 C   0  0  0  0  0  0  0  0  0  0  0  0
    6.7005   -0.6810    1.2791 N   0  0  0  0  0  0  0  0  0  0  0  0
    7.8477    0.0919    1.2848 C   0  0  0  0  0  0  0  0  0  0  0  0
    7.9633    1.2123    1.7752 O   0  0  0  0  0  0  0  0  0  0  0  0
    9.0509   -0.5803    0.5880 C   0  0  1  0  0  0  0  0  0  0  0  0
    9.0713   -0.3336   -0.9310 C   0  0  0  0  0  0  0  0  0  0  0  0
    8.7954    1.1009   -1.4149 C   0  0  0  0  0  0  0  0  0  0  0  0
    9.7316    2.2023   -0.9308 C   0  0  0  0  0  0  0  0  0  0  0  0
   11.0821    2.0802   -1.4345 N   0  0  0  0  0  0  0  0  0  0  0  0
   11.8540    3.1976   -1.5672 C   0  0  0  0  0  0  0  0  0  0  0  0
   11.4703    4.3521   -1.4565 O   0  0  0  0  0  0  0  0  0  0  0  0
   13.1389    2.9104   -1.8980 N   0  0  0  0  0  0  0  0  0  0  0  0
   10.2715   -0.1219    1.2316 N   0  0  0  0  0  0  0  0  0  0  0  0
   11.4199   -0.8710    1.2405 C   0  0  0  0  0  0  0  0  0  0  0  0
   11.4680   -2.0095    0.7730 O   0  0  0  0  0  0  0  0  0  0  0  0
   12.6400   -0.1848    1.8851 C   0  0  1  0  0  0  0  0  0  0  0  0
   12.6846   -0.2967    3.4271 C   0  0  0  0  0  0  0  0  0  0  0  0
   12.5108   -1.7301    3.9427 C   0  0  0  0  0  0  0  0  0  0  0  0
   11.6608    0.6238    4.1026 C   0  0  0  0  0  0  0  0  0  0  0  0
   13.8314   -0.7909    1.2846 N   0  0  0  0  0  0  0  0  0  0  0  0
   14.2997   -0.3388    0.0682 C   0  0  0  0  0  0  0  0  0  0  0  0
   13.8457    0.6454   -0.5063 O   0  0  0  0  0  0  0  0  0  0  0  0
   15.4132   -1.1959   -0.5077 C   0  0  0  0  0  0  0  0  0  0  0  0
   16.4697   -0.3625   -1.2370 C   0  0  0  0  0  0  0  0  0  0  0  0
   17.2007    0.6587   -0.3546 C   0  0  0  0  0  0  0  0  0  0  0  0
   17.9393    0.0790    0.8597 C   0  0  0  0  0  0  0  0  0  0  0  0
   19.1257   -0.8309    0.5186 C   0  0  0  0  0  0  0  0  0  0  0  0
   20.2247   -0.1028   -0.0813 N   0  0  0  0  0  0  0  0  0  0  0  0
   21.0918    0.6805    0.6093 C   0  0  0  0  0  0  0  0  0  0  0  0
   21.1443    0.8998    1.8061 O   0  0  0  0  0  0  0  0  0  0  0  0
   22.0144    1.2686   -0.3716 C   0  0  0  0  0  0  0  0  0  0  0  0
   21.6688    0.8149   -1.5744 C   0  0  0  0  0  0  0  0  0  0  0  0
   20.5094   -0.0691   -1.4041 C   0  0  0  0  0  0  0  0  0  0  0  0
   19.9484   -0.6310   -2.3274 O   0  0  0  0  0  0  0  0  0  0  0  0
   -9.7689    1.1849   -3.8937 H   0  0  0  0  0  0  0  0  0  0  0  0
  -11.2211    0.2951   -3.4329 H   0  0  0  0  0  0  0  0  0  0  0  0
  -10.5510    1.5124   -2.3336 H   0  0  0  0  0  0  0  0  0  0  0  0
   -9.1780   -1.0939   -3.1518 H   0  0  0  0  0  0  0  0  0  0  0  0
  -10.0879   -0.8693   -1.6650 H   0  0  0  0  0  0  0  0  0  0  0  0
   -8.5287    0.9495   -0.9739 H   0  0  0  0  0  0  0  0  0  0  0  0
   -6.3291    1.2302   -2.2204 H   0  0  0  0  0  0  0  0  0  0  0  0
   -7.7581    1.8638   -3.0226 H   0  0  0  0  0  0  0  0  0  0  0  0
   -7.0642    0.3304   -3.5598 H   0  0  0  0  0  0  0  0  0  0  0  0
   -6.6208   -0.1535   -0.3311 H   0  0  0  0  0  0  0  0  0  0  0  0
   -7.2241   -2.3809    0.6357 H   0  0  0  0  0  0  0  0  0  0  0  0
   -7.2821   -0.3342    1.8759 H   0  0  0  0  0  0  0  0  0  0  0  0
   -8.5451   -1.4357    2.4215 H   0  0  0  0  0  0  0  0  0  0  0  0
   -7.1826    1.7345    2.8165 H   0  0  0  0  0  0  0  0  0  0  0  0
   -8.1643    0.7052    3.8956 H   0  0  0  0  0  0  0  0  0  0  0  0
   -7.7973    3.4315    4.3797 H   0  0  0  0  0  0  0  0  0  0  0  0
   -9.1695    2.4974    4.9717 H   0  0  0  0  0  0  0  0  0  0  0  0
  -10.3230    4.1403    3.6665 H   0  0  0  0  0  0  0  0  0  0  0  0
   -8.9863    4.2358    2.5161 H   0  0  0  0  0  0  0  0  0  0  0  0
  -10.9771    1.9241    2.9214 H   0  0  0  0  0  0  0  0  0  0  0  0
  -10.6333    2.2106    0.1403 H   0  0  0  0  0  0  0  0  0  0  0  0
  -12.6862    3.8787    1.6285 H   0  0  0  0  0  0  0  0  0  0  0  0
  -12.7503    2.3833   -1.0367 H   0  0  0  0  0  0  0  0  0  0  0  0
  -12.7290    4.1388   -0.8000 H   0  0  0  0  0  0  0  0  0  0  0  0
  -14.1377    3.1883   -0.2963 H   0  0  0  0  0  0  0  0  0  0  0  0
  -12.0131    0.4136    0.6488 H   0  0  0  0  0  0  0  0  0  0  0  0
  -14.2088   -0.3700    2.4682 H   0  0  0  0  0  0  0  0  0  0  0  0
  -11.9316   -1.2293    2.8651 H   0  0  0  0  0  0  0  0  0  0  0  0
  -11.9167   -1.9880    1.2749 H   0  0  0  0  0  0  0  0  0  0  0  0
  -13.0607   -2.5436    2.5059 H   0  0  0  0  0  0  0  0  0  0  0  0
  -14.9932   -2.1404    0.8848 H   0  0  0  0  0  0  0  0  0  0  0  0
  -15.6740   -1.1874   -2.0073 H   0  0  0  0  0  0  0  0  0  0  0  0
  -17.4925    0.2500   -2.8405 H   0  0  0  0  0  0  0  0  0  0  0  0
  -18.5503    1.9229   -1.3479 H   0  0  0  0  0  0  0  0  0  0  0  0
  -17.7951    2.1334    1.0068 H   0  0  0  0  0  0  0  0  0  0  0  0
  -16.0029    0.7173    1.8650 H   0  0  0  0  0  0  0  0  0  0  0  0
  -13.1379   -0.8705   -0.8157 H   0  0  0  0  0  0  0  0  0  0  0  0
   -9.1433    5.2101   -0.6837 H   0  0  0  0  0  0  0  0  0  0  0  0
   -8.6449    3.5444   -0.3266 H   0  0  0  0  0  0  0  0  0  0  0  0
  -10.0320    3.8680   -1.4257 H   0  0  0  0  0  0  0  0  0  0  0  0
   -9.6523   -3.2566    1.7032 H   0  0  0  0  0  0  0  0  0  0  0  0
  -10.3062   -4.0071    0.2393 H   0  0  0  0  0  0  0  0  0  0  0  0
   -8.5934   -4.2387    0.6363 H   0  0  0  0  0  0  0  0  0  0  0  0
   -6.5235   -3.5845   -2.6570 H   0  0  0  0  0  0  0  0  0  0  0  0
   -7.1908   -2.1899   -3.5586 H   0  0  0  0  0  0  0  0  0  0  0  0
   -8.0885   -2.9230   -2.2170 H   0  0  0  0  0  0  0  0  0  0  0  0
   -4.3269   -3.6500   -2.0302 H   0  0  0  0  0  0  0  0  0  0  0  0
   -5.1230   -2.7836   -4.0929 H   0  0  0  0  0  0  0  0  0  0  0  0
   -3.3059   -3.3203   -5.5584 H   0  0  0  0  0  0  0  0  0  0  0  0
   -2.1057   -3.0331   -4.2898 H   0  0  0  0  0  0  0  0  0  0  0  0
   -3.2548   -4.3760   -4.1464 H   0  0  0  0  0  0  0  0  0  0  0  0
   -4.5854   -0.2913   -3.6616 H   0  0  0  0  0  0  0  0  0  0  0  0
   -4.4818   -0.9385   -5.2988 H   0  0  0  0  0  0  0  0  0  0  0  0
   -3.0094   -0.6649   -4.3930 H   0  0  0  0  0  0  0  0  0  0  0  0
   -2.6207   -3.0438   -0.7948 H   0  0  0  0  0  0  0  0  0  0  0  0
   -0.9439   -2.1117    0.0453 H   0  0  0  0  0  0  0  0  0  0  0  0
    1.4254   -1.4063   -1.0617 H   0  0  0  0  0  0  0  0  0  0  0  0
    1.5317   -1.6300   -3.4148 H   0  0  0  0  0  0  0  0  0  0  0  0
    0.2444   -0.4519   -3.1503 H   0  0  0  0  0  0  0  0  0  0  0  0
   -0.1412   -2.1336   -3.5614 H   0  0  0  0  0  0  0  0  0  0  0  0
    0.8596   -3.6383   -0.2873 H   0  0  0  0  0  0  0  0  0  0  0  0
   -0.1394   -3.9347   -1.7222 H   0  0  0  0  0  0  0  0  0  0  0  0
    1.6127   -3.7150   -1.8833 H   0  0  0  0  0  0  0  0  0  0  0  0
   -0.7242    1.2235   -1.5682 H   0  0  0  0  0  0  0  0  0  0  0  0
   -0.1924    1.9742   -0.0606 H   0  0  0  0  0  0  0  0  0  0  0  0
    0.9656    1.0368   -1.0284 H   0  0  0  0  0  0  0  0  0  0  0  0
    1.3762    1.5956    3.5905 H   0  0  0  0  0  0  0  0  0  0  0  0
    0.9764   -0.1060    3.6995 H   0  0  0  0  0  0  0  0  0  0  0  0
    3.4760    2.3785    2.5044 H   0  0  0  0  0  0  0  0  0  0  0  0
    5.7324    1.8487    1.7503 H   0  0  0  0  0  0  0  0  0  0  0  0
    4.7568   -2.3671    1.8433 H   0  0  0  0  0  0  0  0  0  0  0  0
    2.5064   -1.8179    2.6299 H   0  0  0  0  0  0  0  0  0  0  0  0
    6.7856   -1.6467    0.9563 H   0  0  0  0  0  0  0  0  0  0  0  0
    8.9874   -1.6624    0.7610 H   0  0  0  0  0  0  0  0  0  0  0  0
    8.2983   -0.9712   -1.3784 H   0  0  0  0  0  0  0  0  0  0  0  0
   10.0246   -0.6801   -1.3498 H   0  0  0  0  0  0  0  0  0  0  0  0
    8.8176    1.0849   -2.5145 H   0  0  0  0  0  0  0  0  0  0  0  0
    7.7714    1.3721   -1.1423 H   0  0  0  0  0  0  0  0  0  0  0  0
    9.7934    2.2524    0.1571 H   0  0  0  0  0  0  0  0  0  0  0  0
    9.3225    3.1638   -1.2645 H   0  0  0  0  0  0  0  0  0  0  0  0
   11.6025    1.2288   -1.2713 H   0  0  0  0  0  0  0  0  0  0  0  0
   13.5355    2.0740   -1.4704 H   0  0  0  0  0  0  0  0  0  0  0  0
   13.7365    3.7209   -1.8543 H   0  0  0  0  0  0  0  0  0  0  0  0
   10.2481    0.8003    1.6603 H   0  0  0  0  0  0  0  0  0  0  0  0
   12.6249    0.8744    1.6023 H   0  0  0  0  0  0  0  0  0  0  0  0
   13.6776    0.0438    3.7524 H   0  0  0  0  0  0  0  0  0  0  0  0
   12.7292   -1.7807    5.0178 H   0  0  0  0  0  0  0  0  0  0  0  0
   13.1839   -2.4290    3.4375 H   0  0  0  0  0  0  0  0  0  0  0  0
   11.4822   -2.0838    3.8007 H   0  0  0  0  0  0  0  0  0  0  0  0
   11.7523    1.6507    3.7321 H   0  0  0  0  0  0  0  0  0  0  0  0
   10.6344    0.2881    3.9260 H   0  0  0  0  0  0  0  0  0  0  0  0
   11.8211    0.6460    5.1861 H   0  0  0  0  0  0  0  0  0  0  0  0
   13.9159   -1.7912    1.4215 H   0  0  0  0  0  0  0  0  0  0  0  0
   14.9496   -1.8919   -1.2185 H   0  0  0  0  0  0  0  0  0  0  0  0
   15.8782   -1.8045    0.2736 H   0  0  0  0  0  0  0  0  0  0  0  0
   15.9959    0.1799   -2.0641 H   0  0  0  0  0  0  0  0  0  0  0  0
   17.1966   -1.0391   -1.6958 H   0  0  0  0  0  0  0  0  0  0  0  0
   16.4788    1.4008    0.0057 H   0  0  0  0  0  0  0  0  0  0  0  0
   17.9088    1.2172   -0.9798 H   0  0  0  0  0  0  0  0  0  0  0  0
   18.2933    0.9188    1.4728 H   0  0  0  0  0  0  0  0  0  0  0  0
   17.2327   -0.4757    1.4898 H   0  0  0  0  0  0  0  0  0  0  0  0
   19.4949   -1.2789    1.4477 H   0  0  0  0  0  0  0  0  0  0  0  0
   18.8188   -1.6446   -0.1474 H   0  0  0  0  0  0  0  0  0  0  0  0
   22.8069    1.9463   -0.1036 H   0  0  0  0  0  0  0  0  0  0  0  0
   22.1186    1.0276   -2.5316 H   0  0  0  0  0  0  0  0  0  0  0  0
  1  2  1  0
  2  3  1  0
  3  4  1  0
  3  5  1  0
  5  6  1  0
  6  7  1  0
  7  8  1  0
  8  9  2  0
  8 10  1  0
 10 11  1  0
 11 12  1  0
 12 13  1  0
 13 14  1  0
 14 15  1  0
 15 16  1  0
 16 17  1  0
 16 18  1  0
 18 19  2  0
 18 20  1  0
 20 21  1  0
 21 22  1  0
 21 23  1  0
 23 24  1  0
 24 25  2  0
 25 26  1  0
 26 27  2  0
 27 28  1  0
 28 29  2  0
 23 30  1  0
 15 31  1  0
 31 32  1  0
  6 33  1  0
 33 34  1  0
  5 35  1  0
 35 36  1  0
 35 37  1  0
 37 38  2  0
 37 39  1  0
 39 40  1  0
 40 41  1  0
 40 42  1  0
 39 43  1  0
 43 44  1  0
 44 45  2  0
 44 46  1  0
 46 47  1  0
 47 48  1  0
 47 49  1  0
 46 50  1  0
 50 51  1  0
 50 52  1  0
 52 53  2  0
 52 54  1  0
 54 55  1  0
 55 56  1  0
 56 57  1  0
 57 58  2  0
 58 59  1  0
 59 60  2  0
 60 61  1  0
 59 62  1  0
 62 63  1  0
 63 64  2  0
 63 65  1  0
 65 66  1  0
 66 67  1  0
 67 68  1  0
 68 69  1  0
 69 70  1  0
 70 71  2  0
 70 72  1  0
 65 73  1  0
 73 74  1  0
 74 75  2  0
 74 76  1  0
 76 77  1  0
 77 78  1  0
 77 79  1  0
 76 80  1  0
 80 81  1  0
 81 82  2  0
 81 83  1  0
 83 84  1  0
 84 85  1  0
 85 86  1  0
 86 87  1  0
 87 88  1  0
 88 89  1  0
 89 90  2  0
 89 91  1  0
 91 92  2  0
 92 93  1  0
 93 94  2  0
 14 10  1  0
 29 24  1  0
 61 56  2  0
 93 88  1  0
  1 95  1  0
  1 96  1  0
  1 97  1  0
  2 98  1  0
  2 99  1  0
  3100  1  1
  4101  1  0
  4102  1  0
  4103  1  0
  5104  1  1
  6105  1  1
  7106  1  0
  7107  1  0
 11108  1  0
 11109  1  0
 12110  1  0
 12111  1  0
 13112  1  0
 13113  1  0
 14114  1  1
 15115  1  6
 16116  1  1
 17117  1  0
 17118  1  0
 17119  1  0
 20120  1  0
 21121  1  1
 22122  1  0
 22123  1  0
 22124  1  0
 23125  1  1
 25126  1  0
 26127  1  0
 27128  1  0
 28129  1  0
 29130  1  0
 30131  1  0
 32132  1  0
 32133  1  0
 32134  1  0
 34135  1  0
 34136  1  0
 34137  1  0
 36138  1  0
 36139  1  0
 36140  1  0
 39141  1  6
 40142  1  0
 41143  1  0
 41144  1  0
 41145  1  0
 42146  1  0
 42147  1  0
 42148  1  0
 43149  1  0
 46150  1  1
 47151  1  0
 48152  1  0
 48153  1  0
 48154  1  0
 49155  1  0
 49156  1  0
 49157  1  0
 51158  1  0
 51159  1  0
 51160  1  0
 55161  1  0
 55162  1  0
 57163  1  0
 58164  1  0
 60165  1  0
 61166  1  0
 62167  1  0
 65168  1  6
 66169  1  0
 66170  1  0
 67171  1  0
 67172  1  0
 68173  1  0
 68174  1  0
 69175  1  0
 72176  1  0
 72177  1  0
 73178  1  0
 76179  1  1
 77180  1  0
 78181  1  0
 78182  1  0
 78183  1  0
 79184  1  0
 79185  1  0
 79186  1  0
 80187  1  0
 83188  1  0
 83189  1  0
 84190  1  0
 84191  1  0
 85192  1  0
 85193  1  0
 86194  1  0
 86195  1  0
 87196  1  0
 87197  1  0
 91198  1  0
 92199  1  0
M  END
$$$$

     RDKit          3D

199202  0  0  0  0  0  0  0  0999 V2000
   -6.4793   -1.2351    3.3075 C   0  0  0  0  0  0  0  0  0  0  0  0
   -6.3326   -0.5711    1.9424 C   0  0  0  0  0  0  0  0  0  0  0  0
   -5.4210   -1.3353    0.9587 C   0  0  2  0  0  0  0  0  0  0  0  0
   -4.0565   -1.6664    1.5684 C   0  0  0  0  0  0  0  0  0  0  0  0
   -5.2893   -0.7648   -0.5054 C   0  0  1  0  0  0  0  0  0  0  0  0
   -6.6447   -0.3476   -1.1814 C   0  0  1  0  0  0  0  0  0  0  0  0
   -7.2137    1.0259   -0.8038 C   0  0  0  0  0  0  0  0  0  0  0  0
   -8.7396    1.0112   -0.8275 C   0  0  0  0  0  0  0  0  0  0  0  0
   -9.3757    0.0379   -1.2391 O   0  0  0  0  0  0  0  0  0  0  0  0
   -9.3942    2.1391   -0.3634 N   0  0  0  0  0  0  0  0  0  0  0  0
   -8.7786    3.2331    0.3787 C   0  0  0  0  0  0  0  0  0  0  0  0
   -9.8587    3.6745    1.3488 C   0  0  0  0  0  0  0  0  0  0  0  0
  -11.1318    3.4800    0.5415 C   0  0  0  0  0  0  0  0  0  0  0  0
  -10.8784    2.1741   -0.2423 C   0  0  1  0  0  0  0  0  0  0  0  0
  -11.6144    2.0731   -1.6220 C   0  0  1  0  0  0  0  0  0  0  0  0
  -12.8447    1.1280   -1.6955 C   0  0  1  0  0  0  0  0  0  0  0  0
  -12.4115   -0.3413   -1.7682 C   0  0  0  0  0  0  0  0  0  0  0  0
  -13.8677    1.2734   -0.5667 C   0  0  0  0  0  0  0  0  0  0  0  0
  -13.6383    1.7906    0.5170 O   0  0  0  0  0  0  0  0  0  0  0  0
  -15.0907    0.6793   -0.8513 N   0  0  0  0  0  0  0  0  0  0  0  0
  -16.0993    0.4489    0.2028 C   0  0  2  0  0  0  0  0  0  0  0  0
  -15.6988   -0.7704    1.0358 C   0  0  0  0  0  0  0  0  0  0  0  0
  -17.5022    0.2930   -0.4497 C   0  0  1  0  0  0  0  0  0  0  0  0
  -18.6263    0.0179    0.5237 C   0  0  0  0  0  0  0  0  0  0  0  0
  -19.0620    0.9981    1.4281 C   0  0  0  0  0  0  0  0  0  0  0  0
  -20.0849    0.7213    2.3366 C   0  0  0  0  0  0  0  0  0  0  0  0
  -20.6846   -0.5363    2.3547 C   0  0  0  0  0  0  0  0  0  0  0  0
  -20.2655   -1.5184    1.4599 C   0  0  0  0  0  0  0  0  0  0  0  0
  -19.2422   -1.2442    0.5510 C   0  0  0  0  0  0  0  0  0  0  0  0
  -17.8209    1.4875   -1.1812 O   0  0  0  0  0  0  0  0  0  0  0  0
  -12.0130    3.3801   -2.0926 O   0  0  0  0  0  0  0  0  0  0  0  0
  -11.6979    3.5965   -3.4628 C   0  0  0  0  0  0  0  0  0  0  0  0
   -6.4767   -0.3452   -2.6209 O   0  0  0  0  0  0  0  0  0  0  0  0
   -6.9341   -1.5503   -3.2259 C   0  0  0  0  0  0  0  0  0  0  0  0
   -4.1266    0.1226   -0.8133 N   0  0  0  0  0  0  0  0  0  0  0  0
   -3.3382   -0.2684   -1.9708 C   0  0  0  0  0  0  0  0  0  0  0  0
   -3.8251    1.2490   -0.0596 C   0  0  0  0  0  0  0  0  0  0  0  0
   -4.6513    1.7074    0.7362 O   0  0  0  0  0  0  0  0  0  0  0  0
   -2.4989    2.0718   -0.3360 C   0  0  1  0  0  0  0  0  0  0  0  0
   -2.3139    3.2209    0.7006 C   0  0  0  0  0  0  0  0  0  0  0  0
   -1.3090    4.2717    0.2156 C   0  0  0  0  0  0  0  0  0  0  0  0
   -1.9182    2.7398    2.0981 C   0  0  0  0  0  0  0  0  0  0  0  0
   -1.2276    1.3884   -0.6516 N   0  0  0  0  0  0  0  0  0  0  0  0
   -0.6731    0.4246    0.1577 C   0  0  0  0  0  0  0  0  0  0  0  0
   -1.3374   -0.1600    1.0114 O   0  0  0  0  0  0  0  0  0  0  0  0
    0.7890   -0.0155   -0.1527 C   0  0  1  0  0  0  0  0  0  0  0  0
    0.9357   -1.1523   -1.2039 C   0  0  0  0  0  0  0  0  0  0  0  0
    0.2918   -2.4481   -0.6773 C   0  0  0  0  0  0  0  0  0  0  0  0
    0.3928   -0.8736   -2.6044 C   0  0  0  0  0  0  0  0  0  0  0  0
    1.7429    1.1226   -0.3124 N   0  0  0  0  0  0  0  0  0  0  0  0
    1.9902    1.7223   -1.6121 C   0  0  0  0  0  0  0  0  0  0  0  0
    2.6948    1.4236    0.6705 C   0  0  0  0  0  0  0  0  0  0  0  0
    3.5782    2.2641    0.5157 O   0  0  0  0  0  0  0  0  0  0  0  0
    2.5672    0.6692    1.7905 O   0  0  0  0  0  0  0  0  0  0  0  0
    3.6366    0.7707    2.7456 C   0  0  0  0  0  0  0  0  0  0  0  0
    4.8234   -0.0759    2.3389 C   0  0  0  0  0  0  0  0  0  0  0  0
    4.6516   -1.3697    1.8305 C   0  0  0  0  0  0  0  0  0  0  0  0
    5.7529   -2.1402    1.4365 C   0  0  0  0  0  0  0  0  0  0  0  0
    7.0516   -1.6456    1.5655 C   0  0  0  0  0  0  0  0  0  0  0  0
    7.2301   -0.3702    2.1135 C   0  0  0  0  0  0  0  0  0  0  0  0
    6.1299    0.4086    2.4913 C   0  0  0  0  0  0  0  0  0  0  0  0
    8.2075   -2.3427    1.1565 N   0  0  0  0  0  0  0  0  0  0  0  0
    8.2741   -3.5724    0.5226 C   0  0  0  0  0  0  0  0  0  0  0  0
    7.3156   -4.3117    0.3016 O   0  0  0  0  0  0  0  0  0  0  0  0
    9.7083   -3.9932    0.0846 C   0  0  1  0  0  0  0  0  0  0  0  0
    9.6860   -4.4526   -1.3902 C   0  0  0  0  0  0  0  0  0  0  0  0
   10.6024   -5.6480   -1.6848 C   0  0  0  0  0  0  0  0  0  0  0  0
   12.0870   -5.3005   -1.6395 C   0  0  0  0  0  0  0  0  0  0  0  0
   12.9131   -6.4009   -2.0908 N   0  0  0  0  0  0  0  0  0  0  0  0
   13.2974   -7.3821   -1.2238 C   0  0  0  0  0  0  0  0  0  0  0  0
   12.9501   -7.4917   -0.0590 O   0  0  0  0  0  0  0  0  0  0  0  0
   14.1458   -8.2683   -1.8033 N   0  0  0  0  0  0  0  0  0  0  0  0
   10.7176   -2.9361    0.2736 N   0  0  0  0  0  0  0  0  0  0  0  0
   11.5626   -2.9365    1.3677 C   0  0  0  0  0  0  0  0  0  0  0  0
   11.5706   -3.8489    2.1869 O   0  0  0  0  0  0  0  0  0  0  0  0
   12.5685   -1.7629    1.4513 C   0  0  1  0  0  0  0  0  0  0  0  0
   14.0066   -2.2458    1.1290 C   0  0  0  0  0  0  0  0  0  0  0  0
   14.2916   -2.3643   -0.3735 C   0  0  0  0  0  0  0  0  0  0  0  0
   15.0586   -1.3373    1.7765 C   0  0  0  0  0  0  0  0  0  0  0  0
   12.1718   -0.6057    0.6370 N   0  0  0  0  0  0  0  0  0  0  0  0
   12.1626    0.6653    1.1777 C   0  0  0  0  0  0  0  0  0  0  0  0
   12.3030    0.8876    2.3745 O   0  0  0  0  0  0  0  0  0  0  0  0
   11.9512    1.7516    0.1419 C   0  0  0  0  0  0  0  0  0  0  0  0
   12.2496    3.1416    0.7028 C   0  0  0  0  0  0  0  0  0  0  0  0
   12.0259    4.2717   -0.3051 C   0  0  0  0  0  0  0  0  0  0  0  0
   12.8788    4.2276   -1.5791 C   0  0  0  0  0  0  0  0  0  0  0  0
   14.3478    4.6243   -1.3893 C   0  0  0  0  0  0  0  0  0  0  0  0
   15.1672    3.6361   -0.7157 N   0  0  0  0  0  0  0  0  0  0  0  0
   15.9666    3.9126    0.3490 C   0  0  0  0  0  0  0  0  0  0  0  0
   16.0799    4.9510    0.9728 O   0  0  0  0  0  0  0  0  0  0  0  0
   16.7506    2.7041    0.6308 C   0  0  0  0  0  0  0  0  0  0  0  0
   16.4480    1.8010   -0.3036 C   0  0  0  0  0  0  0  0  0  0  0  0
   15.4521    2.3987   -1.1997 C   0  0  0  0  0  0  0  0  0  0  0  0
   15.0060    1.8336   -2.1824 O   0  0  0  0  0  0  0  0  0  0  0  0
   -5.5389   -1.2122    3.8673 H   0  0  0  0  0  0  0  0  0  0  0  0
   -7.2244   -0.6979    3.9048 H   0  0  0  0  0  0  0  0  0  0  0  0
   -6.8075   -2.2744    3.2109 H   0  0  0  0  0  0  0  0  0  0  0  0
   -5.9728    0.4435    2.1146 H   0  0  0  0  0  0  0  0  0  0  0  0
   -7.3404   -0.4951    1.5179 H   0  0  0  0  0  0  0  0  0  0  0  0
   -5.9226   -2.3065    0.8226 H   0  0  0  0  0  0  0  0  0  0  0  0
   -3.3878   -2.1180    0.8271 H   0  0  0  0  0  0  0  0  0  0  0  0
   -3.5818   -0.7735    1.9828 H   0  0  0  0  0  0  0  0  0  0  0  0
   -4.1585   -2.3938    2.3818 H   0  0  0  0  0  0  0  0  0  0  0  0
   -5.0121   -1.6807   -1.0501 H   0  0  0  0  0  0  0  0  0  0  0  0
   -7.3652   -1.1301   -0.9097 H   0  0  0  0  0  0  0  0  0  0  0  0
   -6.8658    1.8048   -1.4916 H   0  0  0  0  0  0  0  0  0  0  0  0
   -6.9170    1.2831    0.2071 H   0  0  0  0  0  0  0  0  0  0  0  0
   -8.5352    4.0239   -0.3373 H   0  0  0  0  0  0  0  0  0  0  0  0
   -7.8748    2.9356    0.9119 H   0  0  0  0  0  0  0  0  0  0  0  0
   -9.7229    4.7042    1.6888 H   0  0  0  0  0  0  0  0  0  0  0  0
   -9.8730    3.0210    2.2291 H   0  0  0  0  0  0  0  0  0  0  0  0
  -11.2566    4.3453   -0.1137 H   0  0  0  0  0  0  0  0  0  0  0  0
  -12.0065    3.4238    1.1906 H   0  0  0  0  0  0  0  0  0  0  0  0
  -11.1185    1.3018    0.3775 H   0  0  0  0  0  0  0  0  0  0  0  0
  -10.8913    1.6838   -2.3494 H   0  0  0  0  0  0  0  0  0  0  0  0
  -13.3833    1.3623   -2.6236 H   0  0  0  0  0  0  0  0  0  0  0  0
  -11.6933   -0.4990   -2.5794 H   0  0  0  0  0  0  0  0  0  0  0  0
  -11.9592   -0.6715   -0.8280 H   0  0  0  0  0  0  0  0  0  0  0  0
  -13.2623   -1.0022   -1.9636 H   0  0  0  0  0  0  0  0  0  0  0  0
  -15.1430    0.0997   -1.6792 H   0  0  0  0  0  0  0  0  0  0  0  0
  -16.0925    1.3366    0.8457 H   0  0  0  0  0  0  0  0  0  0  0  0
  -14.6850   -0.6604    1.4340 H   0  0  0  0  0  0  0  0  0  0  0  0
  -15.7167   -1.6831    0.4324 H   0  0  0  0  0  0  0  0  0  0  0  0
  -16.3693   -0.9081    1.8885 H   0  0  0  0  0  0  0  0  0  0  0  0
  -17.4626   -0.5093   -1.1981 H   0  0  0  0  0  0  0  0  0  0  0  0
  -18.6106    1.9884    1.4174 H   0  0  0  0  0  0  0  0  0  0  0  0
  -20.4165    1.4892    3.0301 H   0  0  0  0  0  0  0  0  0  0  0  0
  -21.4837   -0.7486    3.0601 H   0  0  0  0  0  0  0  0  0  0  0  0
  -20.7365   -2.4973    1.4700 H   0  0  0  0  0  0  0  0  0  0  0  0
  -18.9312   -2.0247   -0.1391 H   0  0  0  0  0  0  0  0  0  0  0  0
  -16.9800    1.8386   -1.5190 H   0  0  0  0  0  0  0  0  0  0  0  0
  -12.2288    2.8829   -4.1021 H   0  0  0  0  0  0  0  0  0  0  0  0
  -12.0085    4.6068   -3.7349 H   0  0  0  0  0  0  0  0  0  0  0  0
  -10.6188    3.5135   -3.6222 H   0  0  0  0  0  0  0  0  0  0  0  0
   -6.4178   -2.4204   -2.8066 H   0  0  0  0  0  0  0  0  0  0  0  0
   -8.0151   -1.6566   -3.0997 H   0  0  0  0  0  0  0  0  0  0  0  0
   -6.7149   -1.5025   -4.2972 H   0  0  0  0  0  0  0  0  0  0  0  0
   -2.7845    0.5680   -2.4009 H   0  0  0  0  0  0  0  0  0  0  0  0
   -2.6577   -1.0655   -1.6595 H   0  0  0  0  0  0  0  0  0  0  0  0
   -3.9879   -0.6562   -2.7612 H   0  0  0  0  0  0  0  0  0  0  0  0
   -2.7375    2.5771   -1.2842 H   0  0  0  0  0  0  0  0  0  0  0  0
   -3.2778    3.7371    0.7973 H   0  0  0  0  0  0  0  0  0  0  0  0
   -0.2822    3.8847    0.2289 H   0  0  0  0  0  0  0  0  0  0  0  0
   -1.3347    5.1550    0.8652 H   0  0  0  0  0  0  0  0  0  0  0  0
   -1.5360    4.5976   -0.8066 H   0  0  0  0  0  0  0  0  0  0  0  0
   -1.9909    3.5629    2.8169 H   0  0  0  0  0  0  0  0  0  0  0  0
   -0.8852    2.3781    2.1326 H   0  0  0  0  0  0  0  0  0  0  0  0
   -2.5759    1.9387    2.4498 H   0  0  0  0  0  0  0  0  0  0  0  0
   -0.5589    1.9687   -1.1316 H   0  0  0  0  0  0  0  0  0  0  0  0
    1.0678   -0.4982    0.7913 H   0  0  0  0  0  0  0  0  0  0  0  0
    2.0095   -1.3647   -1.3118 H   0  0  0  0  0  0  0  0  0  0  0  0
   -0.7928   -2.3402   -0.5603 H   0  0  0  0  0  0  0  0  0  0  0  0
    0.4729   -3.2820   -1.3646 H   0  0  0  0  0  0  0  0  0  0  0  0
    0.7110   -2.7298    0.2958 H   0  0  0  0  0  0  0  0  0  0  0  0
    0.4394   -1.7781   -3.2206 H   0  0  0  0  0  0  0  0  0  0  0  0
    0.9729   -0.1168   -3.1339 H   0  0  0  0  0  0  0  0  0  0  0  0
   -0.6473   -0.5505   -2.5830 H   0  0  0  0  0  0  0  0  0  0  0  0
    1.0726    1.8313   -2.1886 H   0  0  0  0  0  0  0  0  0  0  0  0
    2.4285    2.7214   -1.5031 H   0  0  0  0  0  0  0  0  0  0  0  0
    2.7070    1.0977   -2.1533 H   0  0  0  0  0  0  0  0  0  0  0  0
    3.9150    1.8200    2.9019 H   0  0  0  0  0  0  0  0  0  0  0  0
    3.2572    0.3972    3.7025 H   0  0  0  0  0  0  0  0  0  0  0  0
    3.6515   -1.7906    1.7311 H   0  0  0  0  0  0  0  0  0  0  0  0
    5.5532   -3.1326    1.0424 H   0  0  0  0  0  0  0  0  0  0  0  0
    8.2276    0.0446    2.2461 H   0  0  0  0  0  0  0  0  0  0  0  0
    6.3016    1.4036    2.8968 H   0  0  0  0  0  0  0  0  0  0  0  0
    9.0977   -1.9002    1.3568 H   0  0  0  0  0  0  0  0  0  0  0  0
    9.9618   -4.8446    0.7277 H   0  0  0  0  0  0  0  0  0  0  0  0
    9.9386   -3.6178   -2.0560 H   0  0  0  0  0  0  0  0  0  0  0  0
    8.6735   -4.7635   -1.6754 H   0  0  0  0  0  0  0  0  0  0  0  0
   10.3818   -6.4683   -0.9910 H   0  0  0  0  0  0  0  0  0  0  0  0
   10.3604   -6.0250   -2.6874 H   0  0  0  0  0  0  0  0  0  0  0  0
   12.3907   -5.0270   -0.6248 H   0  0  0  0  0  0  0  0  0  0  0  0
   12.2913   -4.4550   -2.3054 H   0  0  0  0  0  0  0  0  0  0  0  0
   13.5846   -6.2119   -2.8218 H   0  0  0  0  0  0  0  0  0  0  0  0
   14.3520   -9.0490   -1.1866 H   0  0  0  0  0  0  0  0  0  0  0  0
   13.8988   -8.5503   -2.7416 H   0  0  0  0  0  0  0  0  0  0  0  0
   10.6309   -2.0808   -0.2619 H   0  0  0  0  0  0  0  0  0  0  0  0
   12.5305   -1.4638    2.5067 H   0  0  0  0  0  0  0  0  0  0  0  0
   14.1370   -3.2443    1.5632 H   0  0  0  0  0  0  0  0  0  0  0  0
   14.3553   -1.3829   -0.8546 H   0  0  0  0  0  0  0  0  0  0  0  0
   13.5136   -2.9411   -0.8785 H   0  0  0  0  0  0  0  0  0  0  0  0
   15.2478   -2.8730   -0.5423 H   0  0  0  0  0  0  0  0  0  0  0  0
   14.9242   -1.3001    2.8626 H   0  0  0  0  0  0  0  0  0  0  0  0
   16.0694   -1.7151    1.5794 H   0  0  0  0  0  0  0  0  0  0  0  0
   15.0002   -0.3171    1.3888 H   0  0  0  0  0  0  0  0  0  0  0  0
   12.2625   -0.6784   -0.3693 H   0  0  0  0  0  0  0  0  0  0  0  0
   10.9114    1.6958   -0.1993 H   0  0  0  0  0  0  0  0  0  0  0  0
   12.6036    1.5314   -0.7084 H   0  0  0  0  0  0  0  0  0  0  0  0
   11.5947    3.3252    1.5645 H   0  0  0  0  0  0  0  0  0  0  0  0
   13.2696    3.1763    1.0984 H   0  0  0  0  0  0  0  0  0  0  0  0
   12.1838    5.2318    0.2006 H   0  0  0  0  0  0  0  0  0  0  0  0
   10.9688    4.2568   -0.6019 H   0  0  0  0  0  0  0  0  0  0  0  0
   12.7930    3.2543   -2.0700 H   0  0  0  0  0  0  0  0  0  0  0  0
   12.4426    4.9509   -2.2804 H   0  0  0  0  0  0  0  0  0  0  0  0
   14.4160    5.5822   -0.8630 H   0  0  0  0  0  0  0  0  0  0  0  0
   14.7925    4.7663   -2.3827 H   0  0  0  0  0  0  0  0  0  0  0  0
   17.4500    2.6291    1.4447 H   0  0  0  0  0  0  0  0  0  0  0  0
   16.8423    0.8078   -0.4289 H   0  0  0  0  0  0  0  0  0  0  0  0
  1  2  1  0
  2  3  1  0
  3  4  1  0
  3  5  1  0
  5  6  1  0
  6  7  1  0
  7  8  1  0
  8  9  2  0
  8 10  1  0
 10 11  1  0
 11 12  1  0
 12 13  1  0
 13 14  1  0
 14 15  1  0
 15 16  1  0
 16 17  1  0
 16 18  1  0
 18 19  2  0
 18 20  1  0
 20 21  1  0
 21 22  1  0
 21 23  1  0
 23 24  1  0
 24 25  2  0
 25 26  1  0
 26 27  2  0
 27 28  1  0
 28 29  2  0
 23 30  1  0
 15 31  1  0
 31 32  1  0
  6 33  1  0
 33 34  1  0
  5 35  1  0
 35 36  1  0
 35 37  1  0
 37 38  2  0
 37 39  1  0
 39 40  1  0
 40 41  1  0
 40 42  1  0
 39 43  1  0
 43 44  1  0
 44 45  2  0
 44 46  1  0
 46 47  1  0
 47 48  1  0
 47 49  1  0
 46 50  1  0
 50 51  1  0
 50 52  1  0
 52 53  2  0
 52 54  1  0
 54 55  1  0
 55 56  1  0
 56 57  1  0
 57 58  2  0
 58 59  1  0
 59 60  2  0
 60 61  1  0
 59 62  1  0
 62 63  1  0
 63 64  2  0
 63 65  1  0
 65 66  1  0
 66 67  1  0
 67 68  1  0
 68 69  1  0
 69 70  1  0
 70 71  2  0
 70 72  1  0
 65 73  1  0
 73 74  1  0
 74 75  2  0
 74 76  1  0
 76 77  1  0
 77 78  1  0
 77 79  1  0
 76 80  1  0
 80 81  1  0
 81 82  2  0
 81 83  1  0
 83 84  1  0
 84 85  1  0
 85 86  1  0
 86 87  1  0
 87 88  1  0
 88 89  1  0
 89 90  2  0
 89 91  1  0
 91 92  2  0
 92 93  1  0
 93 94  2  0
 14 10  1  0
 29 24  1  0
 61 56  2  0
 93 88  1  0
  1 95  1  0
  1 96  1  0
  1 97  1  0
  2 98  1  0
  2 99  1  0
  3100  1  6
  4101  1  0
  4102  1  0
  4103  1  0
  5104  1  6
  6105  1  6
  7106  1  0
  7107  1  0
 11108  1  0
 11109  1  0
 12110  1  0
 12111  1  0
 13112  1  0
 13113  1  0
 14114  1  1
 15115  1  6
 16116  1  6
 17117  1  0
 17118  1  0
 17119  1  0
 20120  1  0
 21121  1  1
 22122  1  0
 22123  1  0
 22124  1  0
 23125  1  6
 25126  1  0
 26127  1  0
 27128  1  0
 28129  1  0
 29130  1  0
 30131  1  0
 32132  1  0
 32133  1  0
 32134  1  0
 34135  1  0
 34136  1  0
 34137  1  0
 36138  1  0
 36139  1  0
 36140  1  0
 39141  1  6
 40142  1  0
 41143  1  0
 41144  1  0
 41145  1  0
 42146  1  0
 42147  1  0
 42148  1  0
 43149  1  0
 46150  1  1
 47151  1  0
 48152  1  0
 48153  1  0
 48154  1  0
 49155  1  0
 49156  1  0
 49157  1  0
 51158  1  0
 51159  1  0
 51160  1  0
 55161  1  0
 55162  1  0
 57163  1  0
 58164  1  0
 60165  1  0
 61166  1  0
 62167  1  0
 65168  1  1
 66169  1  0
 66170  1  0
 67171  1  0
 67172  1  0
 68173  1  0
 68174  1  0
 69175  1  0
 72176  1  0
 72177  1  0
 73178  1  0
 76179  1  1
 77180  1  0
 78181  1  0
 78182  1  0
 78183  1  0
 79184  1  0
 79185  1  0
 79186  1  0
 80187  1  0
 83188  1  0
 83189  1  0
 84190  1  0
 84191  1  0
 85192  1  0
 85193  1  0
 86194  1  0
 86195  1  0
 87196  1  0
 87197  1  0
 91198  1  0
 92199  1  0
M  END
$$$$

     RDKit          3D

199202  0  0  0  0  0  0  0  0999 V2000
   -6.1535    4.4880    2.6905 C   0  0  0  0  0  0  0  0  0  0  0  0
   -6.6467    4.0731    1.3093 C   0  0  0  0  0  0  0  0  0  0  0  0
   -5.8547    2.8911    0.6795 C   0  0  2  0  0  0  0  0  0  0  0  0
   -6.1970    2.8800   -0.8153 C   0  0  0  0  0  0  0  0  0  0  0  0
   -6.0457    1.5494    1.4696 C   0  0  1  0  0  0  0  0  0  0  0  0
   -7.4542    0.8497    1.4996 C   0  0  1  0  0  0  0  0  0  0  0  0
   -7.9700    0.2484    0.1878 C   0  0  0  0  0  0  0  0  0  0  0  0
   -9.4988    0.1651    0.1692 C   0  0  0  0  0  0  0  0  0  0  0  0
  -10.1901    0.5186    1.1226 O   0  0  0  0  0  0  0  0  0  0  0  0
  -10.0567   -0.3301   -0.9939 N   0  0  0  0  0  0  0  0  0  0  0  0
   -9.3473   -0.6343   -2.2282 C   0  0  0  0  0  0  0  0  0  0  0  0
  -10.3929   -1.2249   -3.1578 C   0  0  0  0  0  0  0  0  0  0  0  0
  -11.6869   -0.5903   -2.6773 C   0  0  0  0  0  0  0  0  0  0  0  0
  -11.5156   -0.4538   -1.1513 C   0  0  1  0  0  0  0  0  0  0  0  0
  -12.0974   -1.6456   -0.3213 C   0  0  1  0  0  0  0  0  0  0  0  0
  -13.6355   -1.7778   -0.4170 C   0  0  1  0  0  0  0  0  0  0  0  0
  -14.1182   -3.0073    0.3678 C   0  0  0  0  0  0  0  0  0  0  0  0
  -14.3591   -0.5637    0.1450 C   0  0  0  0  0  0  0  0  0  0  0  0
  -13.8520    0.2257    0.9284 O   0  0  0  0  0  0  0  0  0  0  0  0
  -15.6793   -0.4859   -0.2481 N   0  0  0  0  0  0  0  0  0  0  0  0
  -16.5964    0.5401    0.2465 C   0  0  2  0  0  0  0  0  0  0  0  0
  -17.8041   -0.1681    0.8716 C   0  0  0  0  0  0  0  0  0  0  0  0
  -17.0524    1.5131   -0.8654 C   0  0  1  0  0  0  0  0  0  0  0  0
  -15.9305    2.3442   -1.4494 C   0  0  0  0  0  0  0  0  0  0  0  0
  -15.2470    1.9596   -2.6143 C   0  0  0  0  0  0  0  0  0  0  0  0
  -14.2159    2.7446   -3.1295 C   0  0  0  0  0  0  0  0  0  0  0  0
  -13.8500    3.9264   -2.4933 C   0  0  0  0  0  0  0  0  0  0  0  0
  -14.5138    4.3264   -1.3310 C   0  0  0  0  0  0  0  0  0  0  0  0
  -15.5458    3.5373   -0.8148 C   0  0  0  0  0  0  0  0  0  0  0  0
  -17.7202    0.7964   -1.9155 O   0  0  0  0  0  0  0  0  0  0  0  0
  -11.5379   -2.8839   -0.8148 O   0  0  0  0  0  0  0  0  0  0  0  0
  -10.6962   -3.5140    0.1369 C   0  0  0  0  0  0  0  0  0  0  0  0
   -7.3883   -0.2677    2.4195 O   0  0  0  0  0  0  0  0  0  0  0  0
   -7.6786    0.0892    3.7657 C   0  0  0  0  0  0  0  0  0  0  0  0
   -4.8846    0.5947    1.3459 N   0  0  0  0  0  0  0  0  0  0  0  0
   -4.6502   -0.0556    0.0747 C   0  0  0  0  0  0  0  0  0  0  0  0
   -3.9945    0.4980    2.4236 C   0  0  0  0  0  0  0  0  0  0  0  0
   -4.1596    1.1924    3.4364 O   0  0  0  0  0  0  0  0  0  0  0  0
   -2.8887   -0.5947    2.4826 C   0  0  1  0  0  0  0  0  0  0  0  0
   -3.4018   -1.8524    3.2441 C   0  0  0  0  0  0  0  0  0  0  0  0
   -4.4037   -2.7059    2.4703 C   0  0  0  0  0  0  0  0  0  0  0  0
   -2.2215   -2.7345    3.6966 C   0  0  0  0  0  0  0  0  0  0  0  0
   -2.1535   -0.9426    1.2680 N   0  0  0  0  0  0  0  0  0  0  0  0
   -0.9603   -0.3040    0.9345 C   0  0  0  0  0  0  0  0  0  0  0  0
   -0.5641    0.6736    1.5621 O   0  0  0  0  0  0  0  0  0  0  0  0
   -0.2795   -0.8867   -0.3403 C   0  0  1  0  0  0  0  0  0  0  0  0
    0.9599   -0.1819   -0.9734 C   0  0  0  0  0  0  0  0  0  0  0  0
    1.4114    1.1265   -0.3261 C   0  0  0  0  0  0  0  0  0  0  0  0
    0.6974    0.0613   -2.4646 C   0  0  0  0  0  0  0  0  0  0  0  0
   -0.0216   -2.3366   -0.1314 N   0  0  0  0  0  0  0  0  0  0  0  0
   -0.6653   -3.2814   -1.0289 C   0  0  0  0  0  0  0  0  0  0  0  0
    0.9635   -2.8069    0.7364 C   0  0  0  0  0  0  0  0  0  0  0  0
    1.2343   -3.9934    0.8829 O   0  0  0  0  0  0  0  0  0  0  0  0
    1.5964   -1.8100    1.3987 O   0  0  0  0  0  0  0  0  0  0  0  0
    2.7095   -2.1897    2.2121 C   0  0  0  0  0  0  0  0  0  0  0  0
    3.9990   -2.0684    1.4358 C   0  0  0  0  0  0  0  0  0  0  0  0
    4.4653   -0.8121    1.0194 C   0  0  0  0  0  0  0  0  0  0  0  0
    5.6692   -0.6872    0.3171 C   0  0  0  0  0  0  0  0  0  0  0  0
    6.4364   -1.8136    0.0212 C   0  0  0  0  0  0  0  0  0  0  0  0
    5.9771   -3.0699    0.4366 C   0  0  0  0  0  0  0  0  0  0  0  0
    4.7618   -3.1981    1.1240 C   0  0  0  0  0  0  0  0  0  0  0  0
    7.6543   -1.7721   -0.6786 N   0  0  0  0  0  0  0  0  0  0  0  0
    8.3158   -0.6596   -1.1815 C   0  0  0  0  0  0  0  0  0  0  0  0
    8.0358    0.5215   -0.9756 O   0  0  0  0  0  0  0  0  0  0  0  0
    9.5576   -1.0520   -2.0202 C   0  0  1  0  0  0  0  0  0  0  0  0
    9.7191   -0.0661   -3.1926 C   0  0  0  0  0  0  0  0  0  0  0  0
   10.6507   -0.5420   -4.3174 C   0  0  0  0  0  0  0  0  0  0  0  0
   12.1423   -0.4680   -4.0070 C   0  0  0  0  0  0  0  0  0  0  0  0
   12.5918    0.8966   -3.8052 N   0  0  0  0  0  0  0  0  0  0  0  0
   12.9305    1.3851   -2.5822 C   0  0  0  0  0  0  0  0  0  0  0  0
   12.8962    0.7520   -1.5360 O   0  0  0  0  0  0  0  0  0  0  0  0
   13.2903    2.6905   -2.6117 N   0  0  0  0  0  0  0  0  0  0  0  0
   10.7351   -1.1042   -1.1577 N   0  0  0  0  0  0  0  0  0  0  0  0
   10.8852   -2.1652   -0.2965 C   0  0  0  0  0  0  0  0  0  0  0  0
   10.0731   -3.0876   -0.2908 O   0  0  0  0  0  0  0  0  0  0  0  0
   12.1732   -2.1799    0.5843 C   0  0  1  0  0  0  0  0  0  0  0  0
   13.0796   -3.3750    0.2014 C   0  0  0  0  0  0  0  0  0  0  0  0
   13.5040   -3.3482   -1.2669 C   0  0  0  0  0  0  0  0  0  0  0  0
   12.4391   -4.7195    0.5497 C   0  0  0  0  0  0  0  0  0  0  0  0
   12.9307   -0.9204    0.5537 N   0  0  0  0  0  0  0  0  0  0  0  0
   13.8887   -0.6237    1.5045 C   0  0  0  0  0  0  0  0  0  0  0  0
   14.0880   -1.3153    2.5070 O   0  0  0  0  0  0  0  0  0  0  0  0
   14.7070    0.6185    1.1741 C   0  0  0  0  0  0  0  0  0  0  0  0
   15.8445    0.8308    2.1688 C   0  0  0  0  0  0  0  0  0  0  0  0
   16.6335    2.1306    1.9867 C   0  0  0  0  0  0  0  0  0  0  0  0
   17.4697    2.2048    0.6919 C   0  0  0  0  0  0  0  0  0  0  0  0
   16.7810    2.8946   -0.4970 C   0  0  0  0  0  0  0  0  0  0  0  0
   16.4679    4.2876   -0.2427 N   0  0  0  0  0  0  0  0  0  0  0  0
   17.3541    5.3148   -0.3205 C   0  0  0  0  0  0  0  0  0  0  0  0
   18.5317    5.2949   -0.6244 O   0  0  0  0  0  0  0  0  0  0  0  0
   16.6200    6.5357    0.0544 C   0  0  0  0  0  0  0  0  0  0  0  0
   15.3483    6.1896    0.2830 C   0  0  0  0  0  0  0  0  0  0  0  0
   15.2235    4.7507    0.0284 C   0  0  0  0  0  0  0  0  0  0  0  0
   14.1725    4.1343    0.0436 O   0  0  0  0  0  0  0  0  0  0  0  0
   -6.4875    3.7830    3.4590 H   0  0  0  0  0  0  0  0  0  0  0  0
   -6.5637    5.4649    2.9530 H   0  0  0  0  0  0  0  0  0  0  0  0
   -5.0645    4.5521    2.7264 H   0  0  0  0  0  0  0  0  0  0  0  0
   -7.7125    3.8332    1.3518 H   0  0  0  0  0  0  0  0  0  0  0  0
   -6.5490    4.9464    0.6498 H   0  0  0  0  0  0  0  0  0  0  0  0
   -4.7880    3.1481    0.7448 H   0  0  0  0  0  0  0  0  0  0  0  0
   -5.8195    3.7951   -1.2856 H   0  0  0  0  0  0  0  0  0  0  0  0
   -7.2720    2.8725   -0.9853 H   0  0  0  0  0  0  0  0  0  0  0  0
   -5.7340    2.0490   -1.3461 H   0  0  0  0  0  0  0  0  0  0  0  0
   -5.9777    1.8900    2.5066 H   0  0  0  0  0  0  0  0  0  0  0  0
   -8.1780    1.5834    1.8768 H   0  0  0  0  0  0  0  0  0  0  0  0
   -7.6756    0.8445   -0.6716 H   0  0  0  0  0  0  0  0  0  0  0  0
   -7.5810   -0.7687    0.0651 H   0  0  0  0  0  0  0  0  0  0  0  0
   -8.9546    0.3121   -2.6197 H   0  0  0  0  0  0  0  0  0  0  0  0
   -8.5188   -1.3171   -2.0384 H   0  0  0  0  0  0  0  0  0  0  0  0
  -10.1805   -1.0073   -4.2039 H   0  0  0  0  0  0  0  0  0  0  0  0
  -10.4322   -2.3121   -3.0408 H   0  0  0  0  0  0  0  0  0  0  0  0
  -11.7792    0.4152   -3.1197 H   0  0  0  0  0  0  0  0  0  0  0  0
  -12.5706   -1.1592   -2.9898 H   0  0  0  0  0  0  0  0  0  0  0  0
  -11.9797    0.4820   -0.8151 H   0  0  0  0  0  0  0  0  0  0  0  0
  -11.8256   -1.4991    0.7271 H   0  0  0  0  0  0  0  0  0  0  0  0
  -13.9355   -1.9139   -1.4605 H   0  0  0  0  0  0  0  0  0  0  0  0
  -13.7936   -3.9345   -0.1086 H   0  0  0  0  0  0  0  0  0  0  0  0
  -13.7247   -2.9943    1.3892 H   0  0  0  0  0  0  0  0  0  0  0  0
  -15.2067   -3.0370    0.4470 H   0  0  0  0  0  0  0  0  0  0  0  0
  -16.0082   -1.0575   -1.0145 H   0  0  0  0  0  0  0  0  0  0  0  0
  -16.0943    1.1104    1.0374 H   0  0  0  0  0  0  0  0  0  0  0  0
  -18.3082   -0.8115    0.1413 H   0  0  0  0  0  0  0  0  0  0  0  0
  -18.5315    0.5596    1.2545 H   0  0  0  0  0  0  0  0  0  0  0  0
  -17.4910   -0.8051    1.7108 H   0  0  0  0  0  0  0  0  0  0  0  0
  -17.7941    2.2015   -0.4422 H   0  0  0  0  0  0  0  0  0  0  0  0
  -15.5117    1.0325   -3.1215 H   0  0  0  0  0  0  0  0  0  0  0  0
  -13.6920    2.4331   -4.0326 H   0  0  0  0  0  0  0  0  0  0  0  0
  -13.0462    4.5405   -2.8904 H   0  0  0  0  0  0  0  0  0  0  0  0
  -14.2257    5.2457   -0.8269 H   0  0  0  0  0  0  0  0  0  0  0  0
  -16.0406    3.8596    0.1039 H   0  0  0  0  0  0  0  0  0  0  0  0
  -18.2492    1.4791   -2.3765 H   0  0  0  0  0  0  0  0  0  0  0  0
  -11.2469   -3.7486    1.0510 H   0  0  0  0  0  0  0  0  0  0  0  0
  -10.3423   -4.4545   -0.2939 H   0  0  0  0  0  0  0  0  0  0  0  0
   -9.8298   -2.8921    0.3633 H   0  0  0  0  0  0  0  0  0  0  0  0
   -7.5060   -0.7948    4.3877 H   0  0  0  0  0  0  0  0  0  0  0  0
   -7.0329    0.8948    4.1282 H   0  0  0  0  0  0  0  0  0  0  0  0
   -8.7269    0.3805    3.8568 H   0  0  0  0  0  0  0  0  0  0  0  0
   -4.5402   -1.1326    0.2096 H   0  0  0  0  0  0  0  0  0  0  0  0
   -3.7501    0.3697   -0.3749 H   0  0  0  0  0  0  0  0  0  0  0  0
   -5.4785    0.1025   -0.6239 H   0  0  0  0  0  0  0  0  0  0  0  0
   -2.1435   -0.1438    3.1530 H   0  0  0  0  0  0  0  0  0  0  0  0
   -3.9099   -1.5160    4.1599 H   0  0  0  0  0  0  0  0  0  0  0  0
   -4.7387   -3.5567    3.0747 H   0  0  0  0  0  0  0  0  0  0  0  0
   -3.9738   -3.1021    1.5451 H   0  0  0  0  0  0  0  0  0  0  0  0
   -5.2930   -2.1243    2.2151 H   0  0  0  0  0  0  0  0  0  0  0  0
   -1.6627   -3.1360    2.8373 H   0  0  0  0  0  0  0  0  0  0  0  0
   -2.5782   -3.5839    4.2903 H   0  0  0  0  0  0  0  0  0  0  0  0
   -1.5198   -2.1645    4.3159 H   0  0  0  0  0  0  0  0  0  0  0  0
   -2.4003   -1.7872    0.7582 H   0  0  0  0  0  0  0  0  0  0  0  0
   -1.0892   -0.8355   -1.0820 H   0  0  0  0  0  0  0  0  0  0  0  0
    1.8226   -0.8629   -0.9383 H   0  0  0  0  0  0  0  0  0  0  0  0
    1.6543    1.0001    0.7337 H   0  0  0  0  0  0  0  0  0  0  0  0
    0.6550    1.9070   -0.4427 H   0  0  0  0  0  0  0  0  0  0  0  0
    2.3312    1.4824   -0.8048 H   0  0  0  0  0  0  0  0  0  0  0  0
    0.4262   -0.8704   -2.9765 H   0  0  0  0  0  0  0  0  0  0  0  0
    1.5905    0.4586   -2.9636 H   0  0  0  0  0  0  0  0  0  0  0  0
   -0.1229    0.7751   -2.6152 H   0  0  0  0  0  0  0  0  0  0  0  0
   -1.7430   -3.2823   -0.8195 H   0  0  0  0  0  0  0  0  0  0  0  0
   -0.4926   -2.9703   -2.0674 H   0  0  0  0  0  0  0  0  0  0  0  0
   -0.2822   -4.2992   -0.8998 H   0  0  0  0  0  0  0  0  0  0  0  0
    2.5887   -3.1886    2.6550 H   0  0  0  0  0  0  0  0  0  0  0  0
    2.7554   -1.4913    3.0588 H   0  0  0  0  0  0  0  0  0  0  0  0
    3.8969    0.0857    1.2514 H   0  0  0  0  0  0  0  0  0  0  0  0
    5.9790    0.3078    0.0108 H   0  0  0  0  0  0  0  0  0  0  0  0
    6.5558   -3.9648    0.2219 H   0  0  0  0  0  0  0  0  0  0  0  0
    4.4208   -4.1930    1.4183 H   0  0  0  0  0  0  0  0  0  0  0  0
    8.1872   -2.6385   -0.7134 H   0  0  0  0  0  0  0  0  0  0  0  0
    9.3873   -2.0557   -2.4473 H   0  0  0  0  0  0  0  0  0  0  0  0
   10.0337    0.9273   -2.8351 H   0  0  0  0  0  0  0  0  0  0  0  0
    8.7298    0.0683   -3.6534 H   0  0  0  0  0  0  0  0  0  0  0  0
   10.3996   -1.5746   -4.5969 H   0  0  0  0  0  0  0  0  0  0  0  0
   10.4568    0.0796   -5.2015 H   0  0  0  0  0  0  0  0  0  0  0  0
   12.4062   -1.1030   -3.1501 H   0  0  0  0  0  0  0  0  0  0  0  0
   12.6972   -0.8520   -4.8686 H   0  0  0  0  0  0  0  0  0  0  0  0
   12.3433    1.5741   -4.5130 H   0  0  0  0  0  0  0  0  0  0  0  0
   13.6366    3.0809   -1.7266 H   0  0  0  0  0  0  0  0  0  0  0  0
   13.6927    3.0786   -3.4577 H   0  0  0  0  0  0  0  0  0  0  0  0
   11.1601   -0.2154   -0.8898 H   0  0  0  0  0  0  0  0  0  0  0  0
   11.8357   -2.2960    1.6224 H   0  0  0  0  0  0  0  0  0  0  0  0
   13.9982   -3.3187    0.8009 H   0  0  0  0  0  0  0  0  0  0  0  0
   12.6472   -3.4449   -1.9388 H   0  0  0  0  0  0  0  0  0  0  0  0
   14.0278   -2.4189   -1.5032 H   0  0  0  0  0  0  0  0  0  0  0  0
   14.1872   -4.1770   -1.4838 H   0  0  0  0  0  0  0  0  0  0  0  0
   11.6536   -5.0044   -0.1604 H   0  0  0  0  0  0  0  0  0  0  0  0
   12.0082   -4.7084    1.5566 H   0  0  0  0  0  0  0  0  0  0  0  0
   13.1864   -5.5211    0.5261 H   0  0  0  0  0  0  0  0  0  0  0  0
   12.9950   -0.4037   -0.3275 H   0  0  0  0  0  0  0  0  0  0  0  0
   14.0340    1.4806    1.1736 H   0  0  0  0  0  0  0  0  0  0  0  0
   15.1196    0.4867    0.1675 H   0  0  0  0  0  0  0  0  0  0  0  0
   16.5299   -0.0254    2.1309 H   0  0  0  0  0  0  0  0  0  0  0  0
   15.4257    0.8382    3.1884 H   0  0  0  0  0  0  0  0  0  0  0  0
   17.3416    2.1846    2.8230 H   0  0  0  0  0  0  0  0  0  0  0  0
   15.9691    2.9952    2.0942 H   0  0  0  0  0  0  0  0  0  0  0  0
   17.7790    1.1984    0.3877 H   0  0  0  0  0  0  0  0  0  0  0  0
   18.3838    2.7600    0.9201 H   0  0  0  0  0  0  0  0  0  0  0  0
   17.4573    2.8639   -1.3617 H   0  0  0  0  0  0  0  0  0  0  0  0
   15.8653    2.3697   -0.7750 H   0  0  0  0  0  0  0  0  0  0  0  0
   17.0855    7.5028    0.1349 H   0  0  0  0  0  0  0  0  0  0  0  0
   14.5260    6.8102    0.6025 H   0  0  0  0  0  0  0  0  0  0  0  0
  1  2  1  0
  2  3  1  0
  3  4  1  0
  3  5  1  0
  5  6  1  0
  6  7  1  0
  7  8  1  0
  8  9  2  0
  8 10  1  0
 10 11  1  0
 11 12  1  0
 12 13  1  0
 13 14  1  0
 14 15  1  0
 15 16  1  0
 16 17  1  0
 16 18  1  0
 18 19  2  0
 18 20  1  0
 20 21  1  0
 21 22  1  0
 21 23  1  0
 23 24  1  0
 24 25  2  0
 25 26  1  0
 26 27  2  0
 27 28  1  0
 28 29  2  0
 23 30  1  0
 15 31  1  0
 31 32  1  0
  6 33  1  0
 33 34  1  0
  5 35  1  0
 35 36  1  0
 35 37  1  0
 37 38  2  0
 37 39  1  0
 39 40  1  0
 40 41  1  0
 40 42  1  0
 39 43  1  0
 43 44  1  0
 44 45  2  0
 44 46  1  0
 46 47  1  0
 47 48  1  0
 47 49  1  0
 46 50  1  0
 50 51  1  0
 50 52  1  0
 52 53  2  0
 52 54  1  0
 54 55  1  0
 55 56  1  0
 56 57  1  0
 57 58  2  0
 58 59  1  0
 59 60  2  0
 60 61  1  0
 59 62  1  0
 62 63  1  0
 63 64  2  0
 63 65  1  0
 65 66  1  0
 66 67  1  0
 67 68  1  0
 68 69  1  0
 69 70  1  0
 70 71  2  0
 70 72  1  0
 65 73  1  0
 73 74  1  0
 74 75  2  0
 74 76  1  0
 76 77  1  0
 77 78  1  0
 77 79  1  0
 76 80  1  0
 80 81  1  0
 81 82  2  0
 81 83  1  0
 83 84  1  0
 84 85  1  0
 85 86  1  0
 86 87  1  0
 87 88  1  0
 88 89  1  0
 89 90  2  0
 89 91  1  0
 91 92  2  0
 92 93  1  0
 93 94  2  0
 14 10  1  0
 29 24  1  0
 61 56  2  0
 93 88  1  0
  1 95  1  0
  1 96  1  0
  1 97  1  0
  2 98  1  0
  2 99  1  0
  3100  1  6
  4101  1  0
  4102  1  0
  4103  1  0
  5104  1  1
  6105  1  1
  7106  1  0
  7107  1  0
 11108  1  0
 11109  1  0
 12110  1  0
 12111  1  0
 13112  1  0
 13113  1  0
 14114  1  1
 15115  1  1
 16116  1  6
 17117  1  0
 17118  1  0
 17119  1  0
 20120  1  0
 21121  1  1
 22122  1  0
 22123  1  0
 22124  1  0
 23125  1  1
 25126  1  0
 26127  1  0
 27128  1  0
 28129  1  0
 29130  1  0
 30131  1  0
 32132  1  0
 32133  1  0
 32134  1  0
 34135  1  0
 34136  1  0
 34137  1  0
 36138  1  0
 36139  1  0
 36140  1  0
 39141  1  1
 40142  1  0
 41143  1  0
 41144  1  0
 41145  1  0
 42146  1  0
 42147  1  0
 42148  1  0
 43149  1  0
 46150  1  6
 47151  1  0
 48152  1  0
 48153  1  0
 48154  1  0
 49155  1  0
 49156  1  0
 49157  1  0
 51158  1  0
 51159  1  0
 51160  1  0
 55161  1  0
 55162  1  0
 57163  1  0
 58164  1  0
 60165  1  0
 61166  1  0
 62167  1  0
 65168  1  6
 66169  1  0
 66170  1  0
 67171  1  0
 67172  1  0
 68173  1  0
 68174  1  0
 69175  1  0
 72176  1  0
 72177  1  0
 73178  1  0
 76179  1  1
 77180  1  0
 78181  1  0
 78182  1  0
 78183  1  0
 79184  1  0
 79185  1  0
 79186  1  0
 80187  1  0
 83188  1  0
 83189  1  0
 84190  1  0
 84191  1  0
 85192  1  0
 85193  1  0
 86194  1  0
 86195  1  0
 87196  1  0
 87197  1  0
 91198  1  0
 92199  1  0
M  END
$$$$

     RDKit          3D

199202  0  0  0  0  0  0  0  0999 V2000
   -9.8930    2.0901    1.4722 C   0  0  0  0  0  0  0  0  0  0  0  0
   -8.4269    1.9575    1.8476 C   0  0  0  0  0  0  0  0  0  0  0  0
   -7.4036    2.4931    0.8149 C   0  0  2  0  0  0  0  0  0  0  0  0
   -7.8534    3.8268    0.2053 C   0  0  0  0  0  0  0  0  0  0  0  0
   -6.8563    1.4154   -0.1904 C   0  0  1  0  0  0  0  0  0  0  0  0
   -7.8299    0.7456   -1.2299 C   0  0  1  0  0  0  0  0  0  0  0  0
   -8.6352   -0.4332   -0.6557 C   0  0  0  0  0  0  0  0  0  0  0  0
   -7.8166   -1.7113   -0.6113 C   0  0  0  0  0  0  0  0  0  0  0  0
   -6.6079   -1.7079   -0.8250 O   0  0  0  0  0  0  0  0  0  0  0  0
   -8.4905   -2.8849   -0.3014 N   0  0  0  0  0  0  0  0  0  0  0  0
   -7.7451   -4.1340   -0.3001 C   0  0  0  0  0  0  0  0  0  0  0  0
   -8.7630   -5.2109    0.0117 C   0  0  0  0  0  0  0  0  0  0  0  0
  -10.0355   -4.6508   -0.6033 C   0  0  0  0  0  0  0  0  0  0  0  0
   -9.9476   -3.1297   -0.3543 C   0  0  1  0  0  0  0  0  0  0  0  0
  -10.7204   -2.6640    0.9239 C   0  0  1  0  0  0  0  0  0  0  0  0
  -12.2537   -2.7340    0.7054 C   0  0  1  0  0  0  0  0  0  0  0  0
  -13.0556   -2.6517    2.0116 C   0  0  0  0  0  0  0  0  0  0  0  0
  -12.6752   -1.6679   -0.2993 C   0  0  0  0  0  0  0  0  0  0  0  0
  -12.7664   -1.9350   -1.4899 O   0  0  0  0  0  0  0  0  0  0  0  0
  -12.8043   -0.3915    0.1949 N   0  0  0  0  0  0  0  0  0  0  0  0
  -13.4106    0.6930   -0.6018 C   0  0  2  0  0  0  0  0  0  0  0  0
  -12.5171    1.1218   -1.7665 C   0  0  0  0  0  0  0  0  0  0  0  0
  -13.7148    1.8980    0.3326 C   0  0  1  0  0  0  0  0  0  0  0  0
  -14.6243    2.9400   -0.2802 C   0  0  0  0  0  0  0  0  0  0  0  0
  -14.1430    4.2339   -0.5267 C   0  0  0  0  0  0  0  0  0  0  0  0
  -14.9756    5.2034   -1.0883 C   0  0  0  0  0  0  0  0  0  0  0  0
  -16.2962    4.8924   -1.4046 C   0  0  0  0  0  0  0  0  0  0  0  0
  -16.7862    3.6102   -1.1663 C   0  0  0  0  0  0  0  0  0  0  0  0
  -15.9553    2.6390   -0.6060 C   0  0  0  0  0  0  0  0  0  0  0  0
  -14.3116    1.3958    1.5495 O   0  0  0  0  0  0  0  0  0  0  0  0
  -10.3928   -3.4926    2.0541 O   0  0  0  0  0  0  0  0  0  0  0  0
   -9.4250   -2.9075    2.9121 C   0  0  0  0  0  0  0  0  0  0  0  0
   -8.7203    1.7262   -1.7871 O   0  0  0  0  0  0  0  0  0  0  0  0
   -9.1009    1.4481   -3.1310 C   0  0  0  0  0  0  0  0  0  0  0  0
   -5.5889    1.9297   -0.8242 N   0  0  0  0  0  0  0  0  0  0  0  0
   -5.6746    2.5270   -2.1564 C   0  0  0  0  0  0  0  0  0  0  0  0
   -4.3979    1.7167   -0.1287 C   0  0  0  0  0  0  0  0  0  0  0  0
   -4.3850    1.1617    0.9771 O   0  0  0  0  0  0  0  0  0  0  0  0
   -3.0435    2.1731   -0.7292 C   0  0  1  0  0  0  0  0  0  0  0  0
   -2.5641    3.5626   -0.2425 C   0  0  0  0  0  0  0  0  0  0  0  0
   -2.5183    3.6871    1.2856 C   0  0  0  0  0  0  0  0  0  0  0  0
   -3.3762    4.7154   -0.8229 C   0  0  0  0  0  0  0  0  0  0  0  0
   -2.0716    1.1473   -0.3237 N   0  0  0  0  0  0  0  0  0  0  0  0
   -1.1719    0.6011   -1.2178 C   0  0  0  0  0  0  0  0  0  0  0  0
   -1.0273    1.0813   -2.3420 O   0  0  0  0  0  0  0  0  0  0  0  0
   -0.3126   -0.5831   -0.6895 C   0  0  1  0  0  0  0  0  0  0  0  0
   -1.0524   -1.6033    0.2243 C   0  0  0  0  0  0  0  0  0  0  0  0
   -2.3319   -2.2125   -0.3501 C   0  0  0  0  0  0  0  0  0  0  0  0
   -0.1100   -2.7074    0.7107 C   0  0  0  0  0  0  0  0  0  0  0  0
    0.4425   -1.1724   -1.8226 N   0  0  0  0  0  0  0  0  0  0  0  0
   -0.2586   -2.0076   -2.7842 C   0  0  0  0  0  0  0  0  0  0  0  0
    1.7049   -0.7104   -2.1856 C   0  0  0  0  0  0  0  0  0  0  0  0
    2.3251   -1.1259   -3.1536 O   0  0  0  0  0  0  0  0  0  0  0  0
    2.1932    0.2236   -1.3282 O   0  0  0  0  0  0  0  0  0  0  0  0
    3.4660    0.7912   -1.6809 C   0  0  0  0  0  0  0  0  0  0  0  0
    4.6432    0.0811   -1.0522 C   0  0  0  0  0  0  0  0  0  0  0  0
    4.5065   -1.1043   -0.3205 C   0  0  0  0  0  0  0  0  0  0  0  0
    5.6295   -1.7393    0.2273 C   0  0  0  0  0  0  0  0  0  0  0  0
    6.9020   -1.1993    0.0721 C   0  0  0  0  0  0  0  0  0  0  0  0
    7.0454   -0.0245   -0.6711 C   0  0  0  0  0  0  0  0  0  0  0  0
    5.9297    0.5974   -1.2492 C   0  0  0  0  0  0  0  0  0  0  0  0
    8.0644   -1.7382    0.6589 N   0  0  0  0  0  0  0  0  0  0  0  0
    8.1575   -2.8085    1.5138 C   0  0  0  0  0  0  0  0  0  0  0  0
    7.1750   -3.4065    1.9819 O   0  0  0  0  0  0  0  0  0  0  0  0
    9.5877   -3.1441    2.0357 C   0  0  1  0  0  0  0  0  0  0  0  0
    9.6480   -4.6366    2.4494 C   0  0  0  0  0  0  0  0  0  0  0  0
    9.2603   -5.6570    1.3637 C   0  0  0  0  0  0  0  0  0  0  0  0
   10.2289   -5.7608    0.1957 C   0  0  0  0  0  0  0  0  0  0  0  0
   11.5442   -6.1843    0.6384 N   0  0  0  0  0  0  0  0  0  0  0  0
   12.6315   -6.0299   -0.1674 C   0  0  0  0  0  0  0  0  0  0  0  0
   12.6628   -5.3531   -1.1847 O   0  0  0  0  0  0  0  0  0  0  0  0
   13.7372   -6.6493    0.3109 N   0  0  0  0  0  0  0  0  0  0  0  0
   10.7795   -2.7776    1.2457 N   0  0  0  0  0  0  0  0  0  0  0  0
   11.1814   -1.4579    1.1780 C   0  0  0  0  0  0  0  0  0  0  0  0
   10.3736   -0.5401    1.3090 O   0  0  0  0  0  0  0  0  0  0  0  0
   12.6794   -1.1911    0.8776 C   0  0  1  0  0  0  0  0  0  0  0  0
   13.0626   -1.1974   -0.6170 C   0  0  0  0  0  0  0  0  0  0  0  0
   11.9759   -1.6837   -1.5759 C   0  0  0  0  0  0  0  0  0  0  0  0
   14.3157   -2.0601   -0.8306 C   0  0  0  0  0  0  0  0  0  0  0  0
   12.9251    0.0930    1.5545 N   0  0  0  0  0  0  0  0  0  0  0  0
   14.0848    0.8253    1.5265 C   0  0  0  0  0  0  0  0  0  0  0  0
   15.0475    0.5874    0.8021 O   0  0  0  0  0  0  0  0  0  0  0  0
   14.0687    2.0181    2.4660 C   0  0  0  0  0  0  0  0  0  0  0  0
   14.5525    3.2994    1.7949 C   0  0  0  0  0  0  0  0  0  0  0  0
   13.5690    3.8112    0.7329 C   0  0  0  0  0  0  0  0  0  0  0  0
   13.8423    5.2510    0.2857 C   0  0  0  0  0  0  0  0  0  0  0  0
   14.8708    5.3994   -0.8371 C   0  0  0  0  0  0  0  0  0  0  0  0
   16.2056    4.9470   -0.4991 N   0  0  0  0  0  0  0  0  0  0  0  0
   16.9183    4.0402   -1.2145 C   0  0  0  0  0  0  0  0  0  0  0  0
   16.5972    3.4499   -2.2280 O   0  0  0  0  0  0  0  0  0  0  0  0
   18.2325    3.9156   -0.5794 C   0  0  0  0  0  0  0  0  0  0  0  0
   18.2956    4.8337    0.3916 C   0  0  0  0  0  0  0  0  0  0  0  0
   16.9963    5.5166    0.4489 C   0  0  0  0  0  0  0  0  0  0  0  0
   16.7529    6.4221    1.2211 O   0  0  0  0  0  0  0  0  0  0  0  0
  -10.5082    1.5099    2.1709 H   0  0  0  0  0  0  0  0  0  0  0  0
  -10.1008    1.7228    0.4686 H   0  0  0  0  0  0  0  0  0  0  0  0
  -10.2224    3.1309    1.5337 H   0  0  0  0  0  0  0  0  0  0  0  0
   -8.2817    2.5136    2.7847 H   0  0  0  0  0  0  0  0  0  0  0  0
   -8.1897    0.9154    2.0915 H   0  0  0  0  0  0  0  0  0  0  0  0
   -6.5328    2.7642    1.4298 H   0  0  0  0  0  0  0  0  0  0  0  0
   -7.0402    4.3154   -0.3357 H   0  0  0  0  0  0  0  0  0  0  0  0
   -8.1581    4.5225    0.9962 H   0  0  0  0  0  0  0  0  0  0  0  0
   -8.7001    3.7209   -0.4801 H   0  0  0  0  0  0  0  0  0  0  0  0
   -6.5250    0.5832    0.4448 H   0  0  0  0  0  0  0  0  0  0  0  0
   -7.2219    0.3434   -2.0503 H   0  0  0  0  0  0  0  0  0  0  0  0
   -8.9713   -0.2235    0.3593 H   0  0  0  0  0  0  0  0  0  0  0  0
   -9.5279   -0.5941   -1.2590 H   0  0  0  0  0  0  0  0  0  0  0  0
   -6.9357   -4.0931    0.4389 H   0  0  0  0  0  0  0  0  0  0  0  0
   -7.3127   -4.2756   -1.2983 H   0  0  0  0  0  0  0  0  0  0  0  0
   -8.8773   -5.3276    1.0907 H   0  0  0  0  0  0  0  0  0  0  0  0
   -8.4810   -6.1822   -0.4030 H   0  0  0  0  0  0  0  0  0  0  0  0
  -10.0242   -4.8416   -1.6868 H   0  0  0  0  0  0  0  0  0  0  0  0
  -10.9337   -5.1291   -0.1992 H   0  0  0  0  0  0  0  0  0  0  0  0
  -10.3317   -2.6098   -1.2325 H   0  0  0  0  0  0  0  0  0  0  0  0
  -10.4552   -1.6238    1.1529 H   0  0  0  0  0  0  0  0  0  0  0  0
  -12.5249   -3.7012    0.2627 H   0  0  0  0  0  0  0  0  0  0  0  0
  -12.9421   -3.5753    2.5939 H   0  0  0  0  0  0  0  0  0  0  0  0
  -14.1195   -2.5168    1.8014 H   0  0  0  0  0  0  0  0  0  0  0  0
  -12.7231   -1.8212    2.6417 H   0  0  0  0  0  0  0  0  0  0  0  0
  -13.0107   -0.2972    1.1862 H   0  0  0  0  0  0  0  0  0  0  0  0
  -14.3466    0.2841   -1.0031 H   0  0  0  0  0  0  0  0  0  0  0  0
  -12.2946    0.2878   -2.4379 H   0  0  0  0  0  0  0  0  0  0  0  0
  -11.5642    1.5205   -1.4015 H   0  0  0  0  0  0  0  0  0  0  0  0
  -12.9989    1.9003   -2.3684 H   0  0  0  0  0  0  0  0  0  0  0  0
  -12.7710    2.3624    0.6484 H   0  0  0  0  0  0  0  0  0  0  0  0
  -13.1161    4.5022   -0.2913 H   0  0  0  0  0  0  0  0  0  0  0  0
  -14.5936    6.2059   -1.2745 H   0  0  0  0  0  0  0  0  0  0  0  0
  -16.9401    5.6467   -1.8524 H   0  0  0  0  0  0  0  0  0  0  0  0
  -17.8151    3.3664   -1.4179 H   0  0  0  0  0  0  0  0  0  0  0  0
  -16.3528    1.6437   -0.4238 H   0  0  0  0  0  0  0  0  0  0  0  0
  -15.0075    2.0273    1.8017 H   0  0  0  0  0  0  0  0  0  0  0  0
   -8.4906   -2.7067    2.3837 H   0  0  0  0  0  0  0  0  0  0  0  0
   -9.2193   -3.6136    3.7224 H   0  0  0  0  0  0  0  0  0  0  0  0
   -9.8160   -1.9822    3.3500 H   0  0  0  0  0  0  0  0  0  0  0  0
   -8.2318    1.5331   -3.7943 H   0  0  0  0  0  0  0  0  0  0  0  0
   -9.5448    0.4498   -3.2241 H   0  0  0  0  0  0  0  0  0  0  0  0
   -9.8436    2.1882   -3.4309 H   0  0  0  0  0  0  0  0  0  0  0  0
   -4.7513    3.0096   -2.4734 H   0  0  0  0  0  0  0  0  0  0  0  0
   -5.8876    1.7433   -2.8897 H   0  0  0  0  0  0  0  0  0  0  0  0
   -6.4664    3.2811   -2.1771 H   0  0  0  0  0  0  0  0  0  0  0  0
   -3.0898    2.1519   -1.8212 H   0  0  0  0  0  0  0  0  0  0  0  0
   -1.5345    3.6904   -0.6019 H   0  0  0  0  0  0  0  0  0  0  0  0
   -2.1254    4.6675    1.5800 H   0  0  0  0  0  0  0  0  0  0  0  0
   -3.5128    3.5842    1.7271 H   0  0  0  0  0  0  0  0  0  0  0  0
   -1.8648    2.9309    1.7273 H   0  0  0  0  0  0  0  0  0  0  0  0
   -2.9620    5.6771   -0.5031 H   0  0  0  0  0  0  0  0  0  0  0  0
   -3.3527    4.6992   -1.9171 H   0  0  0  0  0  0  0  0  0  0  0  0
   -4.4208    4.6879   -0.4882 H   0  0  0  0  0  0  0  0  0  0  0  0
   -2.2582    0.7108    0.5749 H   0  0  0  0  0  0  0  0  0  0  0  0
    0.4168   -0.0932   -0.0286 H   0  0  0  0  0  0  0  0  0  0  0  0
   -1.3584   -1.0546    1.1248 H   0  0  0  0  0  0  0  0  0  0  0  0
   -2.8867   -2.7252    0.4436 H   0  0  0  0  0  0  0  0  0  0  0  0
   -2.1335   -2.9565   -1.1230 H   0  0  0  0  0  0  0  0  0  0  0  0
   -3.0008   -1.4514   -0.7646 H   0  0  0  0  0  0  0  0  0  0  0  0
    0.2034   -3.3673   -0.1026 H   0  0  0  0  0  0  0  0  0  0  0  0
   -0.6027   -3.3267    1.4695 H   0  0  0  0  0  0  0  0  0  0  0  0
    0.7897   -2.2795    1.1688 H   0  0  0  0  0  0  0  0  0  0  0  0
    0.2634   -2.0484   -3.7433 H   0  0  0  0  0  0  0  0  0  0  0  0
   -1.2597   -1.6056   -2.9649 H   0  0  0  0  0  0  0  0  0  0  0  0
   -0.3209   -3.0245   -2.3951 H   0  0  0  0  0  0  0  0  0  0  0  0
    3.5917    0.8420   -2.7684 H   0  0  0  0  0  0  0  0  0  0  0  0
    3.4518    1.8247   -1.3155 H   0  0  0  0  0  0  0  0  0  0  0  0
    3.5317   -1.5462   -0.1440 H   0  0  0  0  0  0  0  0  0  0  0  0
    5.4667   -2.6826    0.7452 H   0  0  0  0  0  0  0  0  0  0  0  0
    8.0287    0.4102   -0.8360 H   0  0  0  0  0  0  0  0  0  0  0  0
    6.0739    1.5049   -1.8280 H   0  0  0  0  0  0  0  0  0  0  0  0
    8.9042   -1.1511    0.6147 H   0  0  0  0  0  0  0  0  0  0  0  0
    9.6798   -2.5608    2.9596 H   0  0  0  0  0  0  0  0  0  0  0  0
    8.9583   -4.7800    3.2910 H   0  0  0  0  0  0  0  0  0  0  0  0
   10.6457   -4.8664    2.8326 H   0  0  0  0  0  0  0  0  0  0  0  0
    8.2621   -5.4388    0.9686 H   0  0  0  0  0  0  0  0  0  0  0  0
    9.1835   -6.6425    1.8458 H   0  0  0  0  0  0  0  0  0  0  0  0
    9.8685   -6.5183   -0.5110 H   0  0  0  0  0  0  0  0  0  0  0  0
   10.3008   -4.8166   -0.3575 H   0  0  0  0  0  0  0  0  0  0  0  0
   11.5895   -6.9506    1.2984 H   0  0  0  0  0  0  0  0  0  0  0  0
   13.6173   -7.5668    0.7102 H   0  0  0  0  0  0  0  0  0  0  0  0
   14.5276   -6.5824   -0.3220 H   0  0  0  0  0  0  0  0  0  0  0  0
   11.5271   -3.4627    1.2298 H   0  0  0  0  0  0  0  0  0  0  0  0
   13.2685   -1.9245    1.4367 H   0  0  0  0  0  0  0  0  0  0  0  0
   13.3254   -0.1806   -0.9320 H   0  0  0  0  0  0  0  0  0  0  0  0
   11.7086   -2.7279   -1.3815 H   0  0  0  0  0  0  0  0  0  0  0  0
   12.3288   -1.6235   -2.6125 H   0  0  0  0  0  0  0  0  0  0  0  0
   11.0715   -1.0680   -1.5099 H   0  0  0  0  0  0  0  0  0  0  0  0
   14.0992   -3.1275   -0.6924 H   0  0  0  0  0  0  0  0  0  0  0  0
   14.7063   -1.9282   -1.8499 H   0  0  0  0  0  0  0  0  0  0  0  0
   15.1149   -1.7928   -0.1307 H   0  0  0  0  0  0  0  0  0  0  0  0
   12.1663    0.4215    2.1568 H   0  0  0  0  0  0  0  0  0  0  0  0
   14.7341    1.7718    3.3026 H   0  0  0  0  0  0  0  0  0  0  0  0
   13.0690    2.1729    2.8887 H   0  0  0  0  0  0  0  0  0  0  0  0
   14.6745    4.0657    2.5713 H   0  0  0  0  0  0  0  0  0  0  0  0
   15.5391    3.1324    1.3492 H   0  0  0  0  0  0  0  0  0  0  0  0
   12.5602    3.7796    1.1546 H   0  0  0  0  0  0  0  0  0  0  0  0
   13.5581    3.1386   -0.1399 H   0  0  0  0  0  0  0  0  0  0  0  0
   12.8993    5.6722   -0.0840 H   0  0  0  0  0  0  0  0  0  0  0  0
   14.1229    5.8640    1.1506 H   0  0  0  0  0  0  0  0  0  0  0  0
   14.5213    4.8728   -1.7311 H   0  0  0  0  0  0  0  0  0  0  0  0
   14.9512    6.4627   -1.0946 H   0  0  0  0  0  0  0  0  0  0  0  0
   18.9975    3.2342   -0.9056 H   0  0  0  0  0  0  0  0  0  0  0  0
   19.1154    5.0587    1.0541 H   0  0  0  0  0  0  0  0  0  0  0  0
  1  2  1  0
  2  3  1  0
  3  4  1  0
  3  5  1  0
  5  6  1  0
  6  7  1  0
  7  8  1  0
  8  9  2  0
  8 10  1  0
 10 11  1  0
 11 12  1  0
 12 13  1  0
 13 14  1  0
 14 15  1  0
 15 16  1  0
 16 17  1  0
 16 18  1  0
 18 19  2  0
 18 20  1  0
 20 21  1  0
 21 22  1  0
 21 23  1  0
 23 24  1  0
 24 25  2  0
 25 26  1  0
 26 27  2  0
 27 28  1  0
 28 29  2  0
 23 30  1  0
 15 31  1  0
 31 32  1  0
  6 33  1  0
 33 34  1  0
  5 35  1  0
 35 36  1  0
 35 37  1  0
 37 38  2  0
 37 39  1  0
 39 40  1  0
 40 41  1  0
 40 42  1  0
 39 43  1  0
 43 44  1  0
 44 45  2  0
 44 46  1  0
 46 47  1  0
 47 48  1  0
 47 49  1  0
 46 50  1  0
 50 51  1  0
 50 52  1  0
 52 53  2  0
 52 54  1  0
 54 55  1  0
 55 56  1  0
 56 57  1  0
 57 58  2  0
 58 59  1  0
 59 60  2  0
 60 61  1  0
 59 62  1  0
 62 63  1  0
 63 64  2  0
 63 65  1  0
 65 66  1  0
 66 67  1  0
 67 68  1  0
 68 69  1  0
 69 70  1  0
 70 71  2  0
 70 72  1  0
 65 73  1  0
 73 74  1  0
 74 75  2  0
 74 76  1  0
 76 77  1  0
 77 78  1  0
 77 79  1  0
 76 80  1  0
 80 81  1  0
 81 82  2  0
 81 83  1  0
 83 84  1  0
 84 85  1  0
 85 86  1  0
 86 87  1  0
 87 88  1  0
 88 89  1  0
 89 90  2  0
 89 91  1  0
 91 92  2  0
 92 93  1  0
 93 94  2  0
 14 10  1  0
 29 24  1  0
 61 56  2  0
 93 88  1  0
  1 95  1  0
  1 96  1  0
  1 97  1  0
  2 98  1  0
  2 99  1  0
  3100  1  1
  4101  1  0
  4102  1  0
  4103  1  0
  5104  1  1
  6105  1  6
  7106  1  0
  7107  1  0
 11108  1  0
 11109  1  0
 12110  1  0
 12111  1  0
 13112  1  0
 13113  1  0
 14114  1  6
 15115  1  1
 16116  1  6
 17117  1  0
 17118  1  0
 17119  1  0
 20120  1  0
 21121  1  6
 22122  1  0
 22123  1  0
 22124  1  0
 23125  1  1
 25126  1  0
 26127  1  0
 27128  1  0
 28129  1  0
 29130  1  0
 30131  1  0
 32132  1  0
 32133  1  0
 32134  1  0
 34135  1  0
 34136  1  0
 34137  1  0
 36138  1  0
 36139  1  0
 36140  1  0
 39141  1  6
 40142  1  0
 41143  1  0
 41144  1  0
 41145  1  0
 42146  1  0
 42147  1  0
 42148  1  0
 43149  1  0
 46150  1  1
 47151  1  0
 48152  1  0
 48153  1  0
 48154  1  0
 49155  1  0
 49156  1  0
 49157  1  0
 51158  1  0
 51159  1  0
 51160  1  0
 55161  1  0
 55162  1  0
 57163  1  0
 58164  1  0
 60165  1  0
 61166  1  0
 62167  1  0
 65168  1  1
 66169  1  0
 66170  1  0
 67171  1  0
 67172  1  0
 68173  1  0
 68174  1  0
 69175  1  0
 72176  1  0
 72177  1  0
 73178  1  0
 76179  1  1
 77180  1  0
 78181  1  0
 78182  1  0
 78183  1  0
 79184  1  0
 79185  1  0
 79186  1  0
 80187  1  0
 83188  1  0
 83189  1  0
 84190  1  0
 84191  1  0
 85192  1  0
 85193  1  0
 86194  1  0
 86195  1  0
 87196  1  0
 87197  1  0
 91198  1  0
 92199  1  0
M  END
$$$$

     RDKit          3D

199202  0  0  0  0  0  0  0  0999 V2000
   -5.9727    4.6879   -2.9359 C   0  0  0  0  0  0  0  0  0  0  0  0
   -6.2897    3.5018   -2.0289 C   0  0  0  0  0  0  0  0  0  0  0  0
   -5.9199    2.1309   -2.6483 C   0  0  2  0  0  0  0  0  0  0  0  0
   -6.6311    1.9054   -3.9872 C   0  0  0  0  0  0  0  0  0  0  0  0
   -6.0680    0.9732   -1.5872 C   0  0  1  0  0  0  0  0  0  0  0  0
   -7.4389    0.1913   -1.4884 C   0  0  1  0  0  0  0  0  0  0  0  0
   -8.6294    1.1319   -1.2418 C   0  0  0  0  0  0  0  0  0  0  0  0
   -9.9370    0.4412   -0.8778 C   0  0  0  0  0  0  0  0  0  0  0  0
  -10.2890    0.4041    0.3006 O   0  0  0  0  0  0  0  0  0  0  0  0
  -10.7144   -0.0836   -1.8927 N   0  0  0  0  0  0  0  0  0  0  0  0
  -10.5263    0.1740   -3.3220 C   0  0  0  0  0  0  0  0  0  0  0  0
  -11.8890   -0.0558   -3.9546 C   0  0  0  0  0  0  0  0  0  0  0  0
  -12.4812   -1.1297   -3.0631 C   0  0  0  0  0  0  0  0  0  0  0  0
  -12.0565   -0.6695   -1.6558 C   0  0  1  0  0  0  0  0  0  0  0  0
  -12.1678   -1.7890   -0.5722 C   0  0  1  0  0  0  0  0  0  0  0  0
  -13.5832   -2.4247   -0.5274 C   0  0  1  0  0  0  0  0  0  0  0  0
  -13.7555   -3.4473    0.5999 C   0  0  0  0  0  0  0  0  0  0  0  0
  -14.6665   -1.3545   -0.4561 C   0  0  0  0  0  0  0  0  0  0  0  0
  -15.3814   -1.1067   -1.4273 O   0  0  0  0  0  0  0  0  0  0  0  0
  -14.7254   -0.6423    0.7156 N   0  0  0  0  0  0  0  0  0  0  0  0
  -15.6329    0.4927    0.8970 C   0  0  2  0  0  0  0  0  0  0  0  0
  -14.8168    1.7816    0.8133 C   0  0  0  0  0  0  0  0  0  0  0  0
  -16.4008    0.3876    2.2457 C   0  0  1  0  0  0  0  0  0  0  0  0
  -17.3672   -0.7900    2.2894 C   0  0  0  0  0  0  0  0  0  0  0  0
  -17.2146   -1.8452    3.2023 C   0  0  0  0  0  0  0  0  0  0  0  0
  -18.1131   -2.9157    3.2173 C   0  0  0  0  0  0  0  0  0  0  0  0
  -19.1796   -2.9479    2.3243 C   0  0  0  0  0  0  0  0  0  0  0  0
  -19.3514   -1.9078    1.4149 C   0  0  0  0  0  0  0  0  0  0  0  0
  -18.4555   -0.8347    1.4005 C   0  0  0  0  0  0  0  0  0  0  0  0
  -15.4615    0.3173    3.3296 O   0  0  0  0  0  0  0  0  0  0  0  0
  -11.2202   -2.8374   -0.8654 O   0  0  0  0  0  0  0  0  0  0  0  0
  -10.3733   -3.1355    0.2405 C   0  0  0  0  0  0  0  0  0  0  0  0
   -7.6602   -0.5644   -2.6801 O   0  0  0  0  0  0  0  0  0  0  0  0
   -7.7950   -1.9632   -2.4312 C   0  0  0  0  0  0  0  0  0  0  0  0
   -4.8815    0.0460   -1.6588 N   0  0  0  0  0  0  0  0  0  0  0  0
   -4.6013   -0.6054   -2.9372 C   0  0  0  0  0  0  0  0  0  0  0  0
   -3.7538    0.1520   -0.8327 C   0  0  0  0  0  0  0  0  0  0  0  0
   -2.6462   -0.2151   -1.2478 O   0  0  0  0  0  0  0  0  0  0  0  0
   -3.8614    0.7853    0.5877 C   0  0  1  0  0  0  0  0  0  0  0  0
   -4.9027    0.1573    1.5515 C   0  0  0  0  0  0  0  0  0  0  0  0
   -4.7261    0.5896    3.0120 C   0  0  0  0  0  0  0  0  0  0  0  0
   -5.0880   -1.3587    1.4217 C   0  0  0  0  0  0  0  0  0  0  0  0
   -2.4696    0.9573    1.0705 N   0  0  0  0  0  0  0  0  0  0  0  0
   -1.7104   -0.0351    1.6619 C   0  0  0  0  0  0  0  0  0  0  0  0
   -2.2053   -1.0464    2.1555 O   0  0  0  0  0  0  0  0  0  0  0  0
   -0.1614    0.1999    1.6259 C   0  0  1  0  0  0  0  0  0  0  0  0
    0.3704    1.5444    2.1927 C   0  0  0  0  0  0  0  0  0  0  0  0
    0.4276    2.6503    1.1300 C   0  0  0  0  0  0  0  0  0  0  0  0
   -0.3764    2.0580    3.4278 C   0  0  0  0  0  0  0  0  0  0  0  0
    0.5748   -0.9463    2.2273 N   0  0  0  0  0  0  0  0  0  0  0  0
    0.3712   -1.2643    3.6309 C   0  0  0  0  0  0  0  0  0  0  0  0
    1.6019   -1.6083    1.5777 C   0  0  0  0  0  0  0  0  0  0  0  0
    2.2201   -2.5538    2.0702 O   0  0  0  0  0  0  0  0  0  0  0  0
    1.9095   -1.0679    0.3688 O   0  0  0  0  0  0  0  0  0  0  0  0
    2.9472   -1.7282   -0.3708 C   0  0  0  0  0  0  0  0  0  0  0  0
    4.2924   -1.0455   -0.2164 C   0  0  0  0  0  0  0  0  0  0  0  0
    5.0462   -0.6896   -1.3426 C   0  0  0  0  0  0  0  0  0  0  0  0
    6.3252   -0.1362   -1.1965 C   0  0  0  0  0  0  0  0  0  0  0  0
    6.8754    0.0762    0.0721 C   0  0  0  0  0  0  0  0  0  0  0  0
    6.1189   -0.2578    1.1937 C   0  0  0  0  0  0  0  0  0  0  0  0
    4.8461   -0.8204    1.0505 C   0  0  0  0  0  0  0  0  0  0  0  0
    8.1769    0.6112    0.1347 N   0  0  0  0  0  0  0  0  0  0  0  0
    8.9640    0.8007    1.2617 C   0  0  0  0  0  0  0  0  0  0  0  0
    8.6850    0.4612    2.4088 O   0  0  0  0  0  0  0  0  0  0  0  0
   10.3425    1.4055    0.9185 C   0  0  1  0  0  0  0  0  0  0  0  0
   10.9933    2.0257    2.1621 C   0  0  0  0  0  0  0  0  0  0  0  0
   12.3357    2.7261    1.9059 C   0  0  0  0  0  0  0  0  0  0  0  0
   12.2997    3.8540    0.8760 C   0  0  0  0  0  0  0  0  0  0  0  0
   11.3772    4.9071    1.2484 N   0  0  0  0  0  0  0  0  0  0  0  0
   11.4252    6.1021    0.5933 C   0  0  0  0  0  0  0  0  0  0  0  0
   12.2427    6.4373   -0.2498 O   0  0  0  0  0  0  0  0  0  0  0  0
   10.4169    6.9252    0.9823 N   0  0  0  0  0  0  0  0  0  0  0  0
   11.1733    0.3350    0.3862 N   0  0  0  0  0  0  0  0  0  0  0  0
   11.1593   -0.0330   -0.9408 C   0  0  0  0  0  0  0  0  0  0  0  0
   10.4167    0.5431   -1.7352 O   0  0  0  0  0  0  0  0  0  0  0  0
   11.9907   -1.3039   -1.2886 C   0  0  1  0  0  0  0  0  0  0  0  0
   12.7689   -1.2206   -2.6281 C   0  0  0  0  0  0  0  0  0  0  0  0
   13.6125   -2.4834   -2.8683 C   0  0  0  0  0  0  0  0  0  0  0  0
   11.8465   -1.0404   -3.8400 C   0  0  0  0  0  0  0  0  0  0  0  0
   12.8220   -1.7347   -0.1450 N   0  0  0  0  0  0  0  0  0  0  0  0
   13.9780   -1.0927    0.2500 C   0  0  0  0  0  0  0  0  0  0  0  0
   14.3574   -0.0357   -0.2377 O   0  0  0  0  0  0  0  0  0  0  0  0
   14.6899   -1.8122    1.3787 C   0  0  0  0  0  0  0  0  0  0  0  0
   15.9948   -1.1562    1.8326 C   0  0  0  0  0  0  0  0  0  0  0  0
   17.2515   -1.7147    1.1517 C   0  0  0  0  0  0  0  0  0  0  0  0
   17.3727   -1.3579   -0.3316 C   0  0  0  0  0  0  0  0  0  0  0  0
   18.6167   -1.9673   -0.9931 C   0  0  0  0  0  0  0  0  0  0  0  0
   19.8597   -1.4187   -0.4911 N   0  0  0  0  0  0  0  0  0  0  0  0
   20.4063   -0.2453   -0.8992 C   0  0  0  0  0  0  0  0  0  0  0  0
   19.9986    0.5443   -1.7304 O   0  0  0  0  0  0  0  0  0  0  0  0
   21.6550   -0.0696   -0.1476 C   0  0  0  0  0  0  0  0  0  0  0  0
   21.8001   -1.1260    0.6527 C   0  0  0  0  0  0  0  0  0  0  0  0
   20.6483   -2.0079    0.4407 C   0  0  0  0  0  0  0  0  0  0  0  0
   20.4908   -3.0637    1.0269 O   0  0  0  0  0  0  0  0  0  0  0  0
   -6.6850    4.7456   -3.7671 H   0  0  0  0  0  0  0  0  0  0  0  0
   -6.0495    5.6255   -2.3757 H   0  0  0  0  0  0  0  0  0  0  0  0
   -4.9585    4.6219   -3.3469 H   0  0  0  0  0  0  0  0  0  0  0  0
   -7.3532    3.5446   -1.7733 H   0  0  0  0  0  0  0  0  0  0  0  0
   -5.7320    3.6310   -1.0917 H   0  0  0  0  0  0  0  0  0  0  0  0
   -4.8472    2.2120   -2.8766 H   0  0  0  0  0  0  0  0  0  0  0  0
   -6.2564    2.6104   -4.7390 H   0  0  0  0  0  0  0  0  0  0  0  0
   -7.7063    2.0712   -3.9109 H   0  0  0  0  0  0  0  0  0  0  0  0
   -6.4623    0.9057   -4.3888 H   0  0  0  0  0  0  0  0  0  0  0  0
   -5.9850    1.4724   -0.6203 H   0  0  0  0  0  0  0  0  0  0  0  0
   -7.3580   -0.4920   -0.6277 H   0  0  0  0  0  0  0  0  0  0  0  0
   -8.3888    1.7887   -0.3978 H   0  0  0  0  0  0  0  0  0  0  0  0
   -8.8102    1.7948   -2.0876 H   0  0  0  0  0  0  0  0  0  0  0  0
  -10.1628    1.1857   -3.5188 H   0  0  0  0  0  0  0  0  0  0  0  0
   -9.8158   -0.5552   -3.7179 H   0  0  0  0  0  0  0  0  0  0  0  0
  -11.8253   -0.3529   -5.0054 H   0  0  0  0  0  0  0  0  0  0  0  0
  -12.4954    0.8553   -3.8907 H   0  0  0  0  0  0  0  0  0  0  0  0
  -13.5629   -1.2026   -3.1904 H   0  0  0  0  0  0  0  0  0  0  0  0
  -12.0411   -2.1030   -3.3095 H   0  0  0  0  0  0  0  0  0  0  0  0
  -12.6863    0.1775   -1.3498 H   0  0  0  0  0  0  0  0  0  0  0  0
  -11.9518   -1.3459    0.4081 H   0  0  0  0  0  0  0  0  0  0  0  0
  -13.7533   -2.9852   -1.4559 H   0  0  0  0  0  0  0  0  0  0  0  0
  -13.4732   -3.0384    1.5756 H   0  0  0  0  0  0  0  0  0  0  0  0
  -14.8010   -3.7785    0.6666 H   0  0  0  0  0  0  0  0  0  0  0  0
  -13.1386   -4.3332    0.4156 H   0  0  0  0  0  0  0  0  0  0  0  0
  -14.1745   -0.9212    1.5190 H   0  0  0  0  0  0  0  0  0  0  0  0
  -16.3539    0.5084    0.0711 H   0  0  0  0  0  0  0  0  0  0  0  0
  -14.0077    1.7990    1.5527 H   0  0  0  0  0  0  0  0  0  0  0  0
  -15.4504    2.6577    0.9746 H   0  0  0  0  0  0  0  0  0  0  0  0
  -14.3536    1.8788   -0.1750 H   0  0  0  0  0  0  0  0  0  0  0  0
  -17.0003    1.2968    2.4004 H   0  0  0  0  0  0  0  0  0  0  0  0
  -16.3919   -1.8439    3.9132 H   0  0  0  0  0  0  0  0  0  0  0  0
  -17.9771   -3.7286    3.9269 H   0  0  0  0  0  0  0  0  0  0  0  0
  -19.8778   -3.7810    2.3329 H   0  0  0  0  0  0  0  0  0  0  0  0
  -20.1791   -1.9307    0.7100 H   0  0  0  0  0  0  0  0  0  0  0  0
  -18.6135   -0.0358    0.6782 H   0  0  0  0  0  0  0  0  0  0  0  0
  -15.1622    1.2265    3.4992 H   0  0  0  0  0  0  0  0  0  0  0  0
   -9.7289   -2.2801    0.4655 H   0  0  0  0  0  0  0  0  0  0  0  0
  -10.9592   -3.4010    1.1249 H   0  0  0  0  0  0  0  0  0  0  0  0
   -9.7426   -3.9850   -0.0321 H   0  0  0  0  0  0  0  0  0  0  0  0
   -6.9015   -2.3577   -1.9344 H   0  0  0  0  0  0  0  0  0  0  0  0
   -8.6777   -2.1567   -1.8176 H   0  0  0  0  0  0  0  0  0  0  0  0
   -7.9147   -2.4696   -3.3945 H   0  0  0  0  0  0  0  0  0  0  0  0
   -3.9763   -1.4908   -2.7753 H   0  0  0  0  0  0  0  0  0  0  0  0
   -5.5051   -0.9317   -3.4434 H   0  0  0  0  0  0  0  0  0  0  0  0
   -4.0563    0.0915   -3.5818 H   0  0  0  0  0  0  0  0  0  0  0  0
   -4.1619    1.8285    0.4247 H   0  0  0  0  0  0  0  0  0  0  0  0
   -5.8801    0.5697    1.2708 H   0  0  0  0  0  0  0  0  0  0  0  0
   -3.8421    0.1570    3.4853 H   0  0  0  0  0  0  0  0  0  0  0  0
   -5.5875    0.2702    3.6134 H   0  0  0  0  0  0  0  0  0  0  0  0
   -4.6639    1.6811    3.0908 H   0  0  0  0  0  0  0  0  0  0  0  0
   -5.6528   -1.5994    0.5156 H   0  0  0  0  0  0  0  0  0  0  0  0
   -4.1480   -1.9099    1.3585 H   0  0  0  0  0  0  0  0  0  0  0  0
   -5.6597   -1.7648    2.2656 H   0  0  0  0  0  0  0  0  0  0  0  0
   -1.9277    1.5073    0.4172 H   0  0  0  0  0  0  0  0  0  0  0  0
    0.0610    0.1844    0.5503 H   0  0  0  0  0  0  0  0  0  0  0  0
    1.4145    1.3865    2.4980 H   0  0  0  0  0  0  0  0  0  0  0  0
    0.9973    3.5104    1.5043 H   0  0  0  0  0  0  0  0  0  0  0  0
    0.9318    2.2956    0.2221 H   0  0  0  0  0  0  0  0  0  0  0  0
   -0.5628    3.0142    0.8518 H   0  0  0  0  0  0  0  0  0  0  0  0
   -1.4136    2.3234    3.2005 H   0  0  0  0  0  0  0  0  0  0  0  0
    0.1035    2.9630    3.8164 H   0  0  0  0  0  0  0  0  0  0  0  0
   -0.3793    1.3224    4.2386 H   0  0  0  0  0  0  0  0  0  0  0  0
    0.5660   -2.3254    3.8228 H   0  0  0  0  0  0  0  0  0  0  0  0
    1.0825   -0.6760    4.2172 H   0  0  0  0  0  0  0  0  0  0  0  0
   -0.6407   -1.0333    3.9629 H   0  0  0  0  0  0  0  0  0  0  0  0
    2.6337   -1.6897   -1.4229 H   0  0  0  0  0  0  0  0  0  0  0  0
    3.0337   -2.7940   -0.1225 H   0  0  0  0  0  0  0  0  0  0  0  0
    4.6542   -0.8642   -2.3426 H   0  0  0  0  0  0  0  0  0  0  0  0
    6.8870    0.1172   -2.0943 H   0  0  0  0  0  0  0  0  0  0  0  0
    6.4899   -0.1027    2.1985 H   0  0  0  0  0  0  0  0  0  0  0  0
    4.3017   -1.0930    1.9502 H   0  0  0  0  0  0  0  0  0  0  0  0
    8.6373    0.7902   -0.7583 H   0  0  0  0  0  0  0  0  0  0  0  0
   10.1895    2.1703    0.1502 H   0  0  0  0  0  0  0  0  0  0  0  0
   10.2903    2.7302    2.6232 H   0  0  0  0  0  0  0  0  0  0  0  0
   11.1624    1.2423    2.9150 H   0  0  0  0  0  0  0  0  0  0  0  0
   13.0747    1.9801    1.5885 H   0  0  0  0  0  0  0  0  0  0  0  0
   12.6977    3.1266    2.8618 H   0  0  0  0  0  0  0  0  0  0  0  0
   12.0209    3.4865   -0.1200 H   0  0  0  0  0  0  0  0  0  0  0  0
   13.3046    4.2866    0.7806 H   0  0  0  0  0  0  0  0  0  0  0  0
   10.4298    4.6362    1.4590 H   0  0  0  0  0  0  0  0  0  0  0  0
   10.2171    6.9111    1.9744 H   0  0  0  0  0  0  0  0  0  0  0  0
   10.5227    7.8588    0.6045 H   0  0  0  0  0  0  0  0  0  0  0  0
   11.6119   -0.3107    1.0307 H   0  0  0  0  0  0  0  0  0  0  0  0
   11.2397   -2.1022   -1.3808 H   0  0  0  0  0  0  0  0  0  0  0  0
   13.4519   -0.3642   -2.6068 H   0  0  0  0  0  0  0  0  0  0  0  0
   14.1471   -2.4185   -3.8243 H   0  0  0  0  0  0  0  0  0  0  0  0
   12.9886   -3.3855   -2.8897 H   0  0  0  0  0  0  0  0  0  0  0  0
   14.3751   -2.6192   -2.0942 H   0  0  0  0  0  0  0  0  0  0  0  0
   11.0374   -1.7794   -3.8442 H   0  0  0  0  0  0  0  0  0  0  0  0
   12.4013   -1.1485   -4.7795 H   0  0  0  0  0  0  0  0  0  0  0  0
   11.4035   -0.0413   -3.8605 H   0  0  0  0  0  0  0  0  0  0  0  0
   12.6340   -2.6528    0.2287 H   0  0  0  0  0  0  0  0  0  0  0  0
   13.9918   -1.8130    2.2280 H   0  0  0  0  0  0  0  0  0  0  0  0
   14.8586   -2.8544    1.0866 H   0  0  0  0  0  0  0  0  0  0  0  0
   16.1053   -1.3521    2.9058 H   0  0  0  0  0  0  0  0  0  0  0  0
   15.9587   -0.0660    1.7205 H   0  0  0  0  0  0  0  0  0  0  0  0
   18.1208   -1.3211    1.6908 H   0  0  0  0  0  0  0  0  0  0  0  0
   17.2786   -2.8053    1.2767 H   0  0  0  0  0  0  0  0  0  0  0  0
   16.4938   -1.7334   -0.8685 H   0  0  0  0  0  0  0  0  0  0  0  0
   17.3844   -0.2656   -0.4460 H   0  0  0  0  0  0  0  0  0  0  0  0
   18.5711   -1.7603   -2.0686 H   0  0  0  0  0  0  0  0  0  0  0  0
   18.6223   -3.0533   -0.8570 H   0  0  0  0  0  0  0  0  0  0  0  0
   22.3019    0.7824   -0.2672 H   0  0  0  0  0  0  0  0  0  0  0  0
   22.5961   -1.3415    1.3414 H   0  0  0  0  0  0  0  0  0  0  0  0
  1  2  1  0
  2  3  1  0
  3  4  1  0
  3  5  1  0
  5  6  1  0
  6  7  1  0
  7  8  1  0
  8  9  2  0
  8 10  1  0
 10 11  1  0
 11 12  1  0
 12 13  1  0
 13 14  1  0
 14 15  1  0
 15 16  1  0
 16 17  1  0
 16 18  1  0
 18 19  2  0
 18 20  1  0
 20 21  1  0
 21 22  1  0
 21 23  1  0
 23 24  1  0
 24 25  2  0
 25 26  1  0
 26 27  2  0
 27 28  1  0
 28 29  2  0
 23 30  1  0
 15 31  1  0
 31 32  1  0
  6 33  1  0
 33 34  1  0
  5 35  1  0
 35 36  1  0
 35 37  1  0
 37 38  2  0
 37 39  1  0
 39 40  1  0
 40 41  1  0
 40 42  1  0
 39 43  1  0
 43 44  1  0
 44 45  2  0
 44 46  1  0
 46 47  1  0
 47 48  1  0
 47 49  1  0
 46 50  1  0
 50 51  1  0
 50 52  1  0
 52 53  2  0
 52 54  1  0
 54 55  1  0
 55 56  1  0
 56 57  1  0
 57 58  2  0
 58 59  1  0
 59 60  2  0
 60 61  1  0
 59 62  1  0
 62 63  1  0
 63 64  2  0
 63 65  1  0
 65 66  1  0
 66 67  1  0
 67 68  1  0
 68 69  1  0
 69 70  1  0
 70 71  2  0
 70 72  1  0
 65 73  1  0
 73 74  1  0
 74 75  2  0
 74 76  1  0
 76 77  1  0
 77 78  1  0
 77 79  1  0
 76 80  1  0
 80 81  1  0
 81 82  2  0
 81 83  1  0
 83 84  1  0
 84 85  1  0
 85 86  1  0
 86 87  1  0
 87 88  1  0
 88 89  1  0
 89 90  2  0
 89 91  1  0
 91 92  2  0
 92 93  1  0
 93 94  2  0
 14 10  1  0
 29 24  1  0
 61 56  2  0
 93 88  1  0
  1 95  1  0
  1 96  1  0
  1 97  1  0
  2 98  1  0
  2 99  1  0
  3100  1  6
  4101  1  0
  4102  1  0
  4103  1  0
  5104  1  1
  6105  1  1
  7106  1  0
  7107  1  0
 11108  1  0
 11109  1  0
 12110  1  0
 12111  1  0
 13112  1  0
 13113  1  0
 14114  1  1
 15115  1  1
 16116  1  6
 17117  1  0
 17118  1  0
 17119  1  0
 20120  1  0
 21121  1  6
 22122  1  0
 22123  1  0
 22124  1  0
 23125  1  1
 25126  1  0
 26127  1  0
 27128  1  0
 28129  1  0
 29130  1  0
 30131  1  0
 32132  1  0
 32133  1  0
 32134  1  0
 34135  1  0
 34136  1  0
 34137  1  0
 36138  1  0
 36139  1  0
 36140  1  0
 39141  1  6
 40142  1  0
 41143  1  0
 41144  1  0
 41145  1  0
 42146  1  0
 42147  1  0
 42148  1  0
 43149  1  0
 46150  1  6
 47151  1  0
 48152  1  0
 48153  1  0
 48154  1  0
 49155  1  0
 49156  1  0
 49157  1  0
 51158  1  0
 51159  1  0
 51160  1  0
 55161  1  0
 55162  1  0
 57163  1  0
 58164  1  0
 60165  1  0
 61166  1  0
 62167  1  0
 65168  1  6
 66169  1  0
 66170  1  0
 67171  1  0
 67172  1  0
 68173  1  0
 68174  1  0
 69175  1  0
 72176  1  0
 72177  1  0
 73178  1  0
 76179  1  6
 77180  1  0
 78181  1  0
 78182  1  0
 78183  1  0
 79184  1  0
 79185  1  0
 79186  1  0
 80187  1  0
 83188  1  0
 83189  1  0
 84190  1  0
 84191  1  0
 85192  1  0
 85193  1  0
 86194  1  0
 86195  1  0
 87196  1  0
 87197  1  0
 91198  1  0
 92199  1  0
M  END
$$$$

     RDKit          3D

199202  0  0  0  0  0  0  0  0999 V2000
   -4.8235    3.7477   -1.0324 C   0  0  0  0  0  0  0  0  0  0  0  0
   -4.9718    2.8148   -2.2234 C   0  0  0  0  0  0  0  0  0  0  0  0
   -6.2616    1.9469   -2.2325 C   0  0  2  0  0  0  0  0  0  0  0  0
   -7.4751    2.8796   -2.1514 C   0  0  0  0  0  0  0  0  0  0  0  0
   -6.2481    0.8142   -1.1422 C   0  0  1  0  0  0  0  0  0  0  0  0
   -7.4440   -0.2365   -1.1939 C   0  0  1  0  0  0  0  0  0  0  0  0
   -7.9814   -0.6620    0.1884 C   0  0  0  0  0  0  0  0  0  0  0  0
   -8.6789    0.4290    0.9778 C   0  0  0  0  0  0  0  0  0  0  0  0
   -8.5349    1.6253    0.6986 O   0  0  0  0  0  0  0  0  0  0  0  0
   -9.2684    0.0255    2.1836 N   0  0  0  0  0  0  0  0  0  0  0  0
   -9.4112    1.0990    3.1770 C   0  0  0  0  0  0  0  0  0  0  0  0
  -10.9008    1.4663    3.1789 C   0  0  0  0  0  0  0  0  0  0  0  0
  -11.5752    0.4038    2.3024 C   0  0  0  0  0  0  0  0  0  0  0  0
  -10.5456   -0.7132    2.2626 C   0  0  1  0  0  0  0  0  0  0  0  0
  -10.8875   -1.9506    1.3922 C   0  0  1  0  0  0  0  0  0  0  0  0
  -11.3320   -1.6794   -0.0711 C   0  0  1  0  0  0  0  0  0  0  0  0
  -11.2343   -2.9151   -0.9689 C   0  0  0  0  0  0  0  0  0  0  0  0
  -12.7531   -1.1405   -0.1889 C   0  0  0  0  0  0  0  0  0  0  0  0
  -12.9843   -0.1518   -0.8772 O   0  0  0  0  0  0  0  0  0  0  0  0
  -13.7359   -1.8570    0.4553 N   0  0  0  0  0  0  0  0  0  0  0  0
  -15.1748   -1.6325    0.2574 C   0  0  2  0  0  0  0  0  0  0  0  0
  -15.6234   -2.0493   -1.1409 C   0  0  0  0  0  0  0  0  0  0  0  0
  -15.7347   -0.2568    0.7506 C   0  0  1  0  0  0  0  0  0  0  0  0
  -15.7542    0.9245   -0.2018 C   0  0  0  0  0  0  0  0  0  0  0  0
  -14.8395    1.9726   -0.0462 C   0  0  0  0  0  0  0  0  0  0  0  0
  -14.8319    3.0607   -0.9179 C   0  0  0  0  0  0  0  0  0  0  0  0
  -15.7610    3.1263   -1.9595 C   0  0  0  0  0  0  0  0  0  0  0  0
  -16.7007    2.1131   -2.1102 C   0  0  0  0  0  0  0  0  0  0  0  0
  -16.7026    1.0259   -1.2299 C   0  0  0  0  0  0  0  0  0  0  0  0
  -17.0958   -0.4416    1.1833 O   0  0  0  0  0  0  0  0  0  0  0  0
   -9.8370   -2.9447    1.3920 O   0  0  0  0  0  0  0  0  0  0  0  0
   -9.4067   -3.3840    2.6664 C   0  0  0  0  0  0  0  0  0  0  0  0
   -8.5565    0.1455   -2.0035 O   0  0  0  0  0  0  0  0  0  0  0  0
   -8.5487   -0.4256   -3.3060 C   0  0  0  0  0  0  0  0  0  0  0  0
   -4.9343    0.0754   -1.1330 N   0  0  0  0  0  0  0  0  0  0  0  0
   -4.5537   -0.6225   -2.3582 C   0  0  0  0  0  0  0  0  0  0  0  0
   -4.6340   -0.6587    0.0444 C   0  0  0  0  0  0  0  0  0  0  0  0
   -4.6265   -1.8873    0.0443 O   0  0  0  0  0  0  0  0  0  0  0  0
   -4.0798    0.2176    1.2019 C   0  0  1  0  0  0  0  0  0  0  0  0
   -4.5546   -0.1421    2.6306 C   0  0  0  0  0  0  0  0  0  0  0  0
   -4.2546   -1.5448    3.1578 C   0  0  0  0  0  0  0  0  0  0  0  0
   -4.0311    0.8845    3.6393 C   0  0  0  0  0  0  0  0  0  0  0  0
   -2.6394    0.3880    0.9947 N   0  0  0  0  0  0  0  0  0  0  0  0
   -1.7051   -0.6189    1.1193 C   0  0  0  0  0  0  0  0  0  0  0  0
   -1.9722   -1.7481    1.5017 O   0  0  0  0  0  0  0  0  0  0  0  0
   -0.2854   -0.2213    0.6467 C   0  0  1  0  0  0  0  0  0  0  0  0
    0.8332   -0.5206    1.6827 C   0  0  0  0  0  0  0  0  0  0  0  0
    0.8463   -1.9364    2.2742 C   0  0  0  0  0  0  0  0  0  0  0  0
    0.7545    0.4812    2.8429 C   0  0  0  0  0  0  0  0  0  0  0  0
    0.0153   -0.7251   -0.7170 N   0  0  0  0  0  0  0  0  0  0  0  0
   -0.1693   -2.1359   -1.0232 C   0  0  0  0  0  0  0  0  0  0  0  0
    0.7534    0.0164   -1.6334 C   0  0  0  0  0  0  0  0  0  0  0  0
    1.1503   -0.4267   -2.7076 O   0  0  0  0  0  0  0  0  0  0  0  0
    0.9734    1.2988   -1.2243 O   0  0  0  0  0  0  0  0  0  0  0  0
    1.8131    2.0812   -2.0910 C   0  0  0  0  0  0  0  0  0  0  0  0
    3.2663    1.7136   -1.8942 C   0  0  0  0  0  0  0  0  0  0  0  0
    4.0462    1.2552   -2.9653 C   0  0  0  0  0  0  0  0  0  0  0  0
    5.3720    0.8585   -2.7495 C   0  0  0  0  0  0  0  0  0  0  0  0
    5.9297    0.9012   -1.4673 C   0  0  0  0  0  0  0  0  0  0  0  0
    5.1594    1.3867   -0.4102 C   0  0  0  0  0  0  0  0  0  0  0  0
    3.8396    1.7962   -0.6213 C   0  0  0  0  0  0  0  0  0  0  0  0
    7.2384    0.3961   -1.3135 N   0  0  0  0  0  0  0  0  0  0  0  0
    7.9563    0.3000   -0.1206 C   0  0  0  0  0  0  0  0  0  0  0  0
    7.6795    0.8365    0.9465 O   0  0  0  0  0  0  0  0  0  0  0  0
    9.1954   -0.6216   -0.2404 C   0  0  1  0  0  0  0  0  0  0  0  0
    8.7257   -2.0467   -0.5791 C   0  0  0  0  0  0  0  0  0  0  0  0
    9.6412   -3.1405   -0.0132 C   0  0  0  0  0  0  0  0  0  0  0  0
   10.7478   -3.5480   -0.9775 C   0  0  0  0  0  0  0  0  0  0  0  0
   11.6425   -4.5023   -0.3506 N   0  0  0  0  0  0  0  0  0  0  0  0
   12.3448   -5.3976   -1.1068 C   0  0  0  0  0  0  0  0  0  0  0  0
   12.2107   -5.6269   -2.3018 O   0  0  0  0  0  0  0  0  0  0  0  0
   13.2575   -6.0863   -0.3641 N   0  0  0  0  0  0  0  0  0  0  0  0
   10.1134   -0.0461   -1.2395 N   0  0  0  0  0  0  0  0  0  0  0  0
   11.4009    0.2713   -0.8421 C   0  0  0  0  0  0  0  0  0  0  0  0
   11.9892   -0.4171   -0.0027 O   0  0  0  0  0  0  0  0  0  0  0  0
   12.1241    1.5210   -1.4767 C   0  0  1  0  0  0  0  0  0  0  0  0
   11.1873    2.4678   -2.2897 C   0  0  0  0  0  0  0  0  0  0  0  0
   11.6200    3.9299   -2.4205 C   0  0  0  0  0  0  0  0  0  0  0  0
   11.0373    1.9084   -3.7241 C   0  0  0  0  0  0  0  0  0  0  0  0
   12.8409    2.0682   -0.3082 N   0  0  0  0  0  0  0  0  0  0  0  0
   13.8842    2.9593   -0.3406 C   0  0  0  0  0  0  0  0  0  0  0  0
   14.1116    3.7691   -1.2247 O   0  0  0  0  0  0  0  0  0  0  0  0
   14.7584    2.9216    0.9068 C   0  0  0  0  0  0  0  0  0  0  0  0
   16.1102    2.2937    0.5820 C   0  0  0  0  0  0  0  0  0  0  0  0
   16.0160    0.7873    0.3420 C   0  0  0  0  0  0  0  0  0  0  0  0
   17.3554    0.1277    0.0188 C   0  0  0  0  0  0  0  0  0  0  0  0
   18.4013    0.1708    1.1386 C   0  0  0  0  0  0  0  0  0  0  0  0
   18.0134   -0.5927    2.3127 N   0  0  0  0  0  0  0  0  0  0  0  0
   17.3766   -0.0951    3.4009 C   0  0  0  0  0  0  0  0  0  0  0  0
   16.9888    1.0384    3.6207 O   0  0  0  0  0  0  0  0  0  0  0  0
   17.1754   -1.2109    4.3350 C   0  0  0  0  0  0  0  0  0  0  0  0
   17.6766   -2.3100    3.7651 C   0  0  0  0  0  0  0  0  0  0  0  0
   18.2117   -1.9282    2.4563 C   0  0  0  0  0  0  0  0  0  0  0  0
   18.7096   -2.7203    1.6758 O   0  0  0  0  0  0  0  0  0  0  0  0
   -4.9280    3.2211   -0.0795 H   0  0  0  0  0  0  0  0  0  0  0  0
   -3.8279    4.2192   -1.0435 H   0  0  0  0  0  0  0  0  0  0  0  0
   -5.5657    4.5576   -1.0563 H   0  0  0  0  0  0  0  0  0  0  0  0
   -4.0754    2.1841   -2.2837 H   0  0  0  0  0  0  0  0  0  0  0  0
   -4.9556    3.4305   -3.1361 H   0  0  0  0  0  0  0  0  0  0  0  0
   -6.2810    1.4728   -3.2196 H   0  0  0  0  0  0  0  0  0  0  0  0
   -7.3225    3.7796   -2.7647 H   0  0  0  0  0  0  0  0  0  0  0  0
   -8.3845    2.4122   -2.5295 H   0  0  0  0  0  0  0  0  0  0  0  0
   -7.6586    3.2132   -1.1250 H   0  0  0  0  0  0  0  0  0  0  0  0
   -6.2958    1.3156   -0.1689 H   0  0  0  0  0  0  0  0  0  0  0  0
   -7.0550   -1.1711   -1.6084 H   0  0  0  0  0  0  0  0  0  0  0  0
   -8.6592   -1.4903    0.0130 H   0  0  0  0  0  0  0  0  0  0  0  0
   -7.1655   -1.0404    0.8128 H   0  0  0  0  0  0  0  0  0  0  0  0
   -9.1379    0.6700    4.1450 H   0  0  0  0  0  0  0  0  0  0  0  0
   -8.7605    1.9574    2.9969 H   0  0  0  0  0  0  0  0  0  0  0  0
  -11.0695    2.4723    2.7796 H   0  0  0  0  0  0  0  0  0  0  0  0
  -11.2864    1.4449    4.2028 H   0  0  0  0  0  0  0  0  0  0  0  0
  -11.7445    0.8389    1.3126 H   0  0  0  0  0  0  0  0  0  0  0  0
  -12.5345    0.0879    2.7166 H   0  0  0  0  0  0  0  0  0  0  0  0
  -10.5196   -1.1266    3.2828 H   0  0  0  0  0  0  0  0  0  0  0  0
  -11.7323   -2.4386    1.9019 H   0  0  0  0  0  0  0  0  0  0  0  0
  -10.6827   -0.9067   -0.4978 H   0  0  0  0  0  0  0  0  0  0  0  0
  -10.2177   -3.3149   -1.0074 H   0  0  0  0  0  0  0  0  0  0  0  0
  -11.5144   -2.6567   -1.9959 H   0  0  0  0  0  0  0  0  0  0  0  0
  -11.9089   -3.7111   -0.6428 H   0  0  0  0  0  0  0  0  0  0  0  0
  -13.4906   -2.8009    0.7234 H   0  0  0  0  0  0  0  0  0  0  0  0
  -15.6180   -2.3740    0.9326 H   0  0  0  0  0  0  0  0  0  0  0  0
  -15.1730   -1.4286   -1.9237 H   0  0  0  0  0  0  0  0  0  0  0  0
  -16.7130   -1.9970   -1.2312 H   0  0  0  0  0  0  0  0  0  0  0  0
  -15.3288   -3.0848   -1.3433 H   0  0  0  0  0  0  0  0  0  0  0  0
  -15.1794    0.0436    1.6534 H   0  0  0  0  0  0  0  0  0  0  0  0
  -14.0953    1.9396    0.7506 H   0  0  0  0  0  0  0  0  0  0  0  0
  -14.0962    3.8531   -0.7930 H   0  0  0  0  0  0  0  0  0  0  0  0
  -15.7468    3.9697   -2.6448 H   0  0  0  0  0  0  0  0  0  0  0  0
  -17.4331    2.1662   -2.9071 H   0  0  0  0  0  0  0  0  0  0  0  0
  -17.4616    0.2547   -1.3539 H   0  0  0  0  0  0  0  0  0  0  0  0
  -17.0776   -0.8185    2.0839 H   0  0  0  0  0  0  0  0  0  0  0  0
   -8.7539   -4.2530    2.5334 H   0  0  0  0  0  0  0  0  0  0  0  0
  -10.2592   -3.6776    3.2883 H   0  0  0  0  0  0  0  0  0  0  0  0
   -8.8273   -2.6046    3.1754 H   0  0  0  0  0  0  0  0  0  0  0  0
   -7.6588   -0.1254   -3.8627 H   0  0  0  0  0  0  0  0  0  0  0  0
   -9.4328   -0.0589   -3.8388 H   0  0  0  0  0  0  0  0  0  0  0  0
   -8.6027   -1.5159   -3.2465 H   0  0  0  0  0  0  0  0  0  0  0  0
   -4.5636    0.0650   -3.2060 H   0  0  0  0  0  0  0  0  0  0  0  0
   -5.2036   -1.4776   -2.5498 H   0  0  0  0  0  0  0  0  0  0  0  0
   -3.5257   -0.9916   -2.2428 H   0  0  0  0  0  0  0  0  0  0  0  0
   -4.4717    1.2253    1.0245 H   0  0  0  0  0  0  0  0  0  0  0  0
   -5.6532   -0.0516    2.6180 H   0  0  0  0  0  0  0  0  0  0  0  0
   -4.4742   -2.3239    2.4242 H   0  0  0  0  0  0  0  0  0  0  0  0
   -4.8822   -1.7568    4.0346 H   0  0  0  0  0  0  0  0  0  0  0  0
   -3.2205   -1.6455    3.4933 H   0  0  0  0  0  0  0  0  0  0  0  0
   -2.9484    0.7940    3.7899 H   0  0  0  0  0  0  0  0  0  0  0  0
   -4.2448    1.9102    3.3174 H   0  0  0  0  0  0  0  0  0  0  0  0
   -4.5014    0.7463    4.6234 H   0  0  0  0  0  0  0  0  0  0  0  0
   -2.3690    1.2067    0.4567 H   0  0  0  0  0  0  0  0  0  0  0  0
   -0.3069    0.8728    0.5572 H   0  0  0  0  0  0  0  0  0  0  0  0
    1.8057   -0.3683    1.1889 H   0  0  0  0  0  0  0  0  0  0  0  0
    1.7398   -2.0667    2.9060 H   0  0  0  0  0  0  0  0  0  0  0  0
    0.8707   -2.7106    1.5081 H   0  0  0  0  0  0  0  0  0  0  0  0
   -0.0145   -2.1135    2.9273 H   0  0  0  0  0  0  0  0  0  0  0  0
    1.5754    0.3214    3.5529 H   0  0  0  0  0  0  0  0  0  0  0  0
    0.8312    1.5096    2.4747 H   0  0  0  0  0  0  0  0  0  0  0  0
   -0.1883    0.3829    3.3908 H   0  0  0  0  0  0  0  0  0  0  0  0
   -0.2147   -2.2910   -2.1058 H   0  0  0  0  0  0  0  0  0  0  0  0
    0.6879   -2.7046   -0.6433 H   0  0  0  0  0  0  0  0  0  0  0  0
   -1.0985   -2.5268   -0.5965 H   0  0  0  0  0  0  0  0  0  0  0  0
    1.4867    1.9880   -3.1371 H   0  0  0  0  0  0  0  0  0  0  0  0
    1.6721    3.1327   -1.8133 H   0  0  0  0  0  0  0  0  0  0  0  0
    3.6176    1.1845   -3.9588 H   0  0  0  0  0  0  0  0  0  0  0  0
    5.9363    0.5006   -3.6029 H   0  0  0  0  0  0  0  0  0  0  0  0
    5.5405    1.4304    0.6006 H   0  0  0  0  0  0  0  0  0  0  0  0
    3.2592    2.1465    0.2269 H   0  0  0  0  0  0  0  0  0  0  0  0
    7.6616   -0.0155   -2.1444 H   0  0  0  0  0  0  0  0  0  0  0  0
    9.6722   -0.5978    0.7484 H   0  0  0  0  0  0  0  0  0  0  0  0
    7.7446   -2.1902   -0.1061 H   0  0  0  0  0  0  0  0  0  0  0  0
    8.5800   -2.1823   -1.6594 H   0  0  0  0  0  0  0  0  0  0  0  0
    9.0322   -4.0271    0.2014 H   0  0  0  0  0  0  0  0  0  0  0  0
   10.0666   -2.8357    0.9544 H   0  0  0  0  0  0  0  0  0  0  0  0
   10.3184   -3.9944   -1.8858 H   0  0  0  0  0  0  0  0  0  0  0  0
   11.3493   -2.6869   -1.2827 H   0  0  0  0  0  0  0  0  0  0  0  0
   12.0567   -4.2485    0.5319 H   0  0  0  0  0  0  0  0  0  0  0  0
   13.7069   -6.7617   -0.9772 H   0  0  0  0  0  0  0  0  0  0  0  0
   13.9584   -5.4669    0.0369 H   0  0  0  0  0  0  0  0  0  0  0  0
    9.6778    0.5758   -1.9093 H   0  0  0  0  0  0  0  0  0  0  0  0
   12.9078    1.1294   -2.1423 H   0  0  0  0  0  0  0  0  0  0  0  0
   10.2000    2.5028   -1.8107 H   0  0  0  0  0  0  0  0  0  0  0  0
   10.8622    4.5012   -2.9738 H   0  0  0  0  0  0  0  0  0  0  0  0
   11.7276    4.4213   -1.4451 H   0  0  0  0  0  0  0  0  0  0  0  0
   12.5492    4.0167   -2.9871 H   0  0  0  0  0  0  0  0  0  0  0  0
   10.5032    0.9592   -3.7482 H   0  0  0  0  0  0  0  0  0  0  0  0
   12.0241    1.7516   -4.1739 H   0  0  0  0  0  0  0  0  0  0  0  0
   10.4972    2.6089   -4.3685 H   0  0  0  0  0  0  0  0  0  0  0  0
   12.8795    1.4033    0.4603 H   0  0  0  0  0  0  0  0  0  0  0  0
   14.8803    3.9586    1.2363 H   0  0  0  0  0  0  0  0  0  0  0  0
   14.2621    2.3858    1.7203 H   0  0  0  0  0  0  0  0  0  0  0  0
   16.5458    2.7835   -0.2982 H   0  0  0  0  0  0  0  0  0  0  0  0
   16.7838    2.5074    1.4175 H   0  0  0  0  0  0  0  0  0  0  0  0
   15.3453    0.5985   -0.5062 H   0  0  0  0  0  0  0  0  0  0  0  0
   15.5541    0.2996    1.2060 H   0  0  0  0  0  0  0  0  0  0  0  0
   17.7876    0.6094   -0.8636 H   0  0  0  0  0  0  0  0  0  0  0  0
   17.1688   -0.9185   -0.2574 H   0  0  0  0  0  0  0  0  0  0  0  0
   18.6100    1.2024    1.4409 H   0  0  0  0  0  0  0  0  0  0  0  0
   19.3368   -0.2583    0.7632 H   0  0  0  0  0  0  0  0  0  0  0  0
   16.6958   -1.1003    5.2926 H   0  0  0  0  0  0  0  0  0  0  0  0
   17.7044   -3.3150    4.1516 H   0  0  0  0  0  0  0  0  0  0  0  0
  1  2  1  0
  2  3  1  0
  3  4  1  0
  3  5  1  0
  5  6  1  0
  6  7  1  0
  7  8  1  0
  8  9  2  0
  8 10  1  0
 10 11  1  0
 11 12  1  0
 12 13  1  0
 13 14  1  0
 14 15  1  0
 15 16  1  0
 16 17  1  0
 16 18  1  0
 18 19  2  0
 18 20  1  0
 20 21  1  0
 21 22  1  0
 21 23  1  0
 23 24  1  0
 24 25  2  0
 25 26  1  0
 26 27  2  0
 27 28  1  0
 28 29  2  0
 23 30  1  0
 15 31  1  0
 31 32  1  0
  6 33  1  0
 33 34  1  0
  5 35  1  0
 35 36  1  0
 35 37  1  0
 37 38  2  0
 37 39  1  0
 39 40  1  0
 40 41  1  0
 40 42  1  0
 39 43  1  0
 43 44  1  0
 44 45  2  0
 44 46  1  0
 46 47  1  0
 47 48  1  0
 47 49  1  0
 46 50  1  0
 50 51  1  0
 50 52  1  0
 52 53  2  0
 52 54  1  0
 54 55  1  0
 55 56  1  0
 56 57  1  0
 57 58  2  0
 58 59  1  0
 59 60  2  0
 60 61  1  0
 59 62  1  0
 62 63  1  0
 63 64  2  0
 63 65  1  0
 65 66  1  0
 66 67  1  0
 67 68  1  0
 68 69  1  0
 69 70  1  0
 70 71  2  0
 70 72  1  0
 65 73  1  0
 73 74  1  0
 74 75  2  0
 74 76  1  0
 76 77  1  0
 77 78  1  0
 77 79  1  0
 76 80  1  0
 80 81  1  0
 81 82  2  0
 81 83  1  0
 83 84  1  0
 84 85  1  0
 85 86  1  0
 86 87  1  0
 87 88  1  0
 88 89  1  0
 89 90  2  0
 89 91  1  0
 91 92  2  0
 92 93  1  0
 93 94  2  0
 14 10  1  0
 29 24  1  0
 61 56  2  0
 93 88  1  0
  1 95  1  0
  1 96  1  0
  1 97  1  0
  2 98  1  0
  2 99  1  0
  3100  1  6
  4101  1  0
  4102  1  0
  4103  1  0
  5104  1  1
  6105  1  6
  7106  1  0
  7107  1  0
 11108  1  0
 11109  1  0
 12110  1  0
 12111  1  0
 13112  1  0
 13113  1  0
 14114  1  1
 15115  1  1
 16116  1  6
 17117  1  0
 17118  1  0
 17119  1  0
 20120  1  0
 21121  1  1
 22122  1  0
 22123  1  0
 22124  1  0
 23125  1  1
 25126  1  0
 26127  1  0
 27128  1  0
 28129  1  0
 29130  1  0
 30131  1  0
 32132  1  0
 32133  1  0
 32134  1  0
 34135  1  0
 34136  1  0
 34137  1  0
 36138  1  0
 36139  1  0
 36140  1  0
 39141  1  6
 40142  1  0
 41143  1  0
 41144  1  0
 41145  1  0
 42146  1  0
 42147  1  0
 42148  1  0
 43149  1  0
 46150  1  6
 47151  1  0
 48152  1  0
 48153  1  0
 48154  1  0
 49155  1  0
 49156  1  0
 49157  1  0
 51158  1  0
 51159  1  0
 51160  1  0
 55161  1  0
 55162  1  0
 57163  1  0
 58164  1  0
 60165  1  0
 61166  1  0
 62167  1  0
 65168  1  1
 66169  1  0
 66170  1  0
 67171  1  0
 67172  1  0
 68173  1  0
 68174  1  0
 69175  1  0
 72176  1  0
 72177  1  0
 73178  1  0
 76179  1  6
 77180  1  0
 78181  1  0
 78182  1  0
 78183  1  0
 79184  1  0
 79185  1  0
 79186  1  0
 80187  1  0
 83188  1  0
 83189  1  0
 84190  1  0
 84191  1  0
 85192  1  0
 85193  1  0
 86194  1  0
 86195  1  0
 87196  1  0
 87197  1  0
 91198  1  0
 92199  1  0
M  END
$$$$

     RDKit          3D

199202  0  0  0  0  0  0  0  0999 V2000
    8.7278    2.3346   -2.9637 C   0  0  0  0  0  0  0  0  0  0  0  0
    8.0404    2.2065   -1.6072 C   0  0  0  0  0  0  0  0  0  0  0  0
    6.5065    2.3367   -1.6843 C   0  0  2  0  0  0  0  0  0  0  0  0
    6.1365    3.7992   -1.9893 C   0  0  0  0  0  0  0  0  0  0  0  0
    5.6710    1.8000   -0.4574 C   0  0  1  0  0  0  0  0  0  0  0  0
    5.3514    0.2522   -0.4869 C   0  0  1  0  0  0  0  0  0  0  0  0
    6.4764   -0.7231   -0.8884 C   0  0  0  0  0  0  0  0  0  0  0  0
    7.5582   -1.0329    0.1322 C   0  0  0  0  0  0  0  0  0  0  0  0
    7.3929   -0.9032    1.3397 O   0  0  0  0  0  0  0  0  0  0  0  0
    8.7463   -1.5423   -0.3686 N   0  0  0  0  0  0  0  0  0  0  0  0
    8.9282   -2.1291   -1.6878 C   0  0  0  0  0  0  0  0  0  0  0  0
    9.8518   -3.3067   -1.4338 C   0  0  0  0  0  0  0  0  0  0  0  0
   10.7763   -2.7733   -0.3490 C   0  0  0  0  0  0  0  0  0  0  0  0
    9.8566   -1.9128    0.5385 C   0  0  1  0  0  0  0  0  0  0  0  0
   10.5373   -0.6603    1.1800 C   0  0  1  0  0  0  0  0  0  0  0  0
   11.2310   -0.9350    2.5378 C   0  0  1  0  0  0  0  0  0  0  0  0
   10.2020   -1.1968    3.6408 C   0  0  0  0  0  0  0  0  0  0  0  0
   12.2664   -2.0589    2.4896 C   0  0  0  0  0  0  0  0  0  0  0  0
   12.2689   -2.9868    3.2929 O   0  0  0  0  0  0  0  0  0  0  0  0
   13.2149   -1.8997    1.5104 N   0  0  0  0  0  0  0  0  0  0  0  0
   14.3619   -2.7711    1.1937 C   0  0  2  0  0  0  0  0  0  0  0  0
   14.3785   -4.1298    1.8988 C   0  0  0  0  0  0  0  0  0  0  0  0
   15.7028   -2.0131    1.4356 C   0  0  1  0  0  0  0  0  0  0  0  0
   15.8831   -0.8612    0.4577 C   0  0  0  0  0  0  0  0  0  0  0  0
   15.6816    0.4749    0.8372 C   0  0  0  0  0  0  0  0  0  0  0  0
   15.8077    1.5066   -0.0946 C   0  0  0  0  0  0  0  0  0  0  0  0
   16.1315    1.2180   -1.4183 C   0  0  0  0  0  0  0  0  0  0  0  0
   16.3423   -0.1016   -1.8105 C   0  0  0  0  0  0  0  0  0  0  0  0
   16.2211   -1.1343   -0.8793 C   0  0  0  0  0  0  0  0  0  0  0  0
   15.8033   -1.5503    2.7853 O   0  0  0  0  0  0  0  0  0  0  0  0
   11.4781   -0.0845    0.2427 O   0  0  0  0  0  0  0  0  0  0  0  0
   11.6335    1.3242    0.3782 C   0  0  0  0  0  0  0  0  0  0  0  0
    4.5936   -0.1089    0.6841 O   0  0  0  0  0  0  0  0  0  0  0  0
    4.1053   -1.4418    0.7031 C   0  0  0  0  0  0  0  0  0  0  0  0
    5.9909    2.3720    0.8777 N   0  0  0  0  0  0  0  0  0  0  0  0
    7.2514    2.0333    1.5185 C   0  0  0  0  0  0  0  0  0  0  0  0
    5.0303    2.8270    1.7936 C   0  0  0  0  0  0  0  0  0  0  0  0
    5.3340    2.9844    2.9889 O   0  0  0  0  0  0  0  0  0  0  0  0
    3.5896    3.2660    1.3817 C   0  0  1  0  0  0  0  0  0  0  0  0
    3.5332    4.5927    0.5745 C   0  0  0  0  0  0  0  0  0  0  0  0
    4.5061    5.6439    1.1296 C   0  0  0  0  0  0  0  0  0  0  0  0
    2.1263    5.2100    0.5774 C   0  0  0  0  0  0  0  0  0  0  0  0
    2.6795    2.1736    0.9979 N   0  0  0  0  0  0  0  0  0  0  0  0
    2.0884    1.9693   -0.2280 C   0  0  0  0  0  0  0  0  0  0  0  0
    2.4764    2.5485   -1.2410 O   0  0  0  0  0  0  0  0  0  0  0  0
    0.9002    0.9343   -0.2539 C   0  0  1  0  0  0  0  0  0  0  0  0
    0.0117    0.9829    1.0345 C   0  0  0  0  0  0  0  0  0  0  0  0
   -0.9217   -0.2225    1.1629 C   0  0  0  0  0  0  0  0  0  0  0  0
   -0.8069    2.2682    1.1796 C   0  0  0  0  0  0  0  0  0  0  0  0
    0.1056    1.0365   -1.5113 N   0  0  0  0  0  0  0  0  0  0  0  0
   -0.1378    2.3455   -2.1085 C   0  0  0  0  0  0  0  0  0  0  0  0
   -0.2525   -0.0529   -2.2864 C   0  0  0  0  0  0  0  0  0  0  0  0
   -0.5825    0.0458   -3.4654 O   0  0  0  0  0  0  0  0  0  0  0  0
   -0.2953   -1.2210   -1.5908 O   0  0  0  0  0  0  0  0  0  0  0  0
   -1.0668   -2.2675   -2.2126 C   0  0  0  0  0  0  0  0  0  0  0  0
   -2.5503   -2.0414   -1.9948 C   0  0  0  0  0  0  0  0  0  0  0  0
   -3.2798   -1.2593   -2.8987 C   0  0  0  0  0  0  0  0  0  0  0  0
   -4.6032   -0.9016   -2.6328 C   0  0  0  0  0  0  0  0  0  0  0  0
   -5.2455   -1.3578   -1.4799 C   0  0  0  0  0  0  0  0  0  0  0  0
   -4.5533   -2.1984   -0.6084 C   0  0  0  0  0  0  0  0  0  0  0  0
   -3.2091   -2.5259   -0.8558 C   0  0  0  0  0  0  0  0  0  0  0  0
   -6.5352   -0.8503   -1.2306 N   0  0  0  0  0  0  0  0  0  0  0  0
   -7.4810   -1.3329   -0.3420 C   0  0  0  0  0  0  0  0  0  0  0  0
   -7.4163   -2.4247    0.2245 O   0  0  0  0  0  0  0  0  0  0  0  0
   -8.6079   -0.3092    0.0054 C   0  0  1  0  0  0  0  0  0  0  0  0
   -9.0656    0.6759   -1.0809 C   0  0  0  0  0  0  0  0  0  0  0  0
   -9.4990    0.1142   -2.4408 C   0  0  0  0  0  0  0  0  0  0  0  0
  -10.8270   -0.6415   -2.4546 C   0  0  0  0  0  0  0  0  0  0  0  0
  -10.7344   -2.0190   -2.0052 N   0  0  0  0  0  0  0  0  0  0  0  0
  -10.0989   -2.9490   -2.7801 C   0  0  0  0  0  0  0  0  0  0  0  0
   -9.4569   -2.7148   -3.7917 O   0  0  0  0  0  0  0  0  0  0  0  0
  -10.2074   -4.2062   -2.2868 N   0  0  0  0  0  0  0  0  0  0  0  0
   -9.7496   -0.9913    0.6021 N   0  0  0  0  0  0  0  0  0  0  0  0
  -10.2393   -0.6792    1.8540 C   0  0  0  0  0  0  0  0  0  0  0  0
   -9.7107    0.1704    2.5681 O   0  0  0  0  0  0  0  0  0  0  0  0
  -11.3840   -1.6141    2.3400 C   0  0  1  0  0  0  0  0  0  0  0  0
  -12.0524   -1.2417    3.6892 C   0  0  0  0  0  0  0  0  0  0  0  0
  -12.7504    0.1195    3.7115 C   0  0  0  0  0  0  0  0  0  0  0  0
  -11.0719   -1.3502    4.8640 C   0  0  0  0  0  0  0  0  0  0  0  0
  -12.3787   -1.9606    1.3036 N   0  0  0  0  0  0  0  0  0  0  0  0
  -13.0868   -0.9820    0.6301 C   0  0  0  0  0  0  0  0  0  0  0  0
  -12.7287    0.1876    0.5658 O   0  0  0  0  0  0  0  0  0  0  0  0
  -14.3258   -1.5223   -0.0601 C   0  0  0  0  0  0  0  0  0  0  0  0
  -15.0247   -0.5057   -0.9645 C   0  0  0  0  0  0  0  0  0  0  0  0
  -15.7454    0.6462   -0.2479 C   0  0  0  0  0  0  0  0  0  0  0  0
  -16.8674    0.2451    0.7151 C   0  0  0  0  0  0  0  0  0  0  0  0
  -18.0370   -0.5097    0.0775 C   0  0  0  0  0  0  0  0  0  0  0  0
  -18.7639    0.2839   -0.8953 N   0  0  0  0  0  0  0  0  0  0  0  0
  -18.6997    0.1207   -2.2397 C   0  0  0  0  0  0  0  0  0  0  0  0
  -18.0468   -0.6771   -2.8868 O   0  0  0  0  0  0  0  0  0  0  0  0
  -19.6045    1.1074   -2.8381 C   0  0  0  0  0  0  0  0  0  0  0  0
  -20.1726    1.7926   -1.8452 C   0  0  0  0  0  0  0  0  0  0  0  0
  -19.6486    1.2642   -0.5816 C   0  0  0  0  0  0  0  0  0  0  0  0
  -19.9927    1.6666    0.5137 O   0  0  0  0  0  0  0  0  0  0  0  0
    8.5964    3.3295   -3.4010 H   0  0  0  0  0  0  0  0  0  0  0  0
    8.3433    1.5893   -3.6705 H   0  0  0  0  0  0  0  0  0  0  0  0
    9.8054    2.1640   -2.8498 H   0  0  0  0  0  0  0  0  0  0  0  0
    8.3271    1.2342   -1.2087 H   0  0  0  0  0  0  0  0  0  0  0  0
    8.4523    2.9696   -0.9376 H   0  0  0  0  0  0  0  0  0  0  0  0
    6.1685    1.7608   -2.5566 H   0  0  0  0  0  0  0  0  0  0  0  0
    6.4225    4.4640   -1.1676 H   0  0  0  0  0  0  0  0  0  0  0  0
    6.6219    4.1603   -2.9002 H   0  0  0  0  0  0  0  0  0  0  0  0
    5.0603    3.8967   -2.1613 H   0  0  0  0  0  0  0  0  0  0  0  0
    4.6908    2.2241   -0.6523 H   0  0  0  0  0  0  0  0  0  0  0  0
    4.6344    0.1583   -1.3190 H   0  0  0  0  0  0  0  0  0  0  0  0
    6.0221   -1.6965   -1.1220 H   0  0  0  0  0  0  0  0  0  0  0  0
    6.9327   -0.3772   -1.8199 H   0  0  0  0  0  0  0  0  0  0  0  0
    9.4077   -1.3755   -2.3242 H   0  0  0  0  0  0  0  0  0  0  0  0
    7.9870   -2.4451   -2.1449 H   0  0  0  0  0  0  0  0  0  0  0  0
    9.2812   -4.1600   -1.0493 H   0  0  0  0  0  0  0  0  0  0  0  0
   10.3877   -3.6268   -2.3311 H   0  0  0  0  0  0  0  0  0  0  0  0
   11.2499   -3.5837    0.2128 H   0  0  0  0  0  0  0  0  0  0  0  0
   11.5692   -2.1898   -0.8292 H   0  0  0  0  0  0  0  0  0  0  0  0
    9.4048   -2.5396    1.3151 H   0  0  0  0  0  0  0  0  0  0  0  0
    9.7617    0.0925    1.3597 H   0  0  0  0  0  0  0  0  0  0  0  0
   11.7938   -0.0394    2.8337 H   0  0  0  0  0  0  0  0  0  0  0  0
   10.6794   -1.1485    4.6255 H   0  0  0  0  0  0  0  0  0  0  0  0
    9.7439   -2.1860    3.5522 H   0  0  0  0  0  0  0  0  0  0  0  0
    9.4051   -0.4470    3.6266 H   0  0  0  0  0  0  0  0  0  0  0  0
   13.0677   -1.1248    0.8642 H   0  0  0  0  0  0  0  0  0  0  0  0
   14.2599   -2.9798    0.1202 H   0  0  0  0  0  0  0  0  0  0  0  0
   13.4499   -4.6788    1.7129 H   0  0  0  0  0  0  0  0  0  0  0  0
   15.2033   -4.7446    1.5232 H   0  0  0  0  0  0  0  0  0  0  0  0
   14.5139   -4.0312    2.9815 H   0  0  0  0  0  0  0  0  0  0  0  0
   16.5455   -2.7005    1.2895 H   0  0  0  0  0  0  0  0  0  0  0  0
   15.4310    0.7183    1.8677 H   0  0  0  0  0  0  0  0  0  0  0  0
   15.6543    2.5360    0.2162 H   0  0  0  0  0  0  0  0  0  0  0  0
   16.2289    2.0218   -2.1416 H   0  0  0  0  0  0  0  0  0  0  0  0
   16.6003   -0.3277   -2.8416 H   0  0  0  0  0  0  0  0  0  0  0  0
   16.3909   -2.1587   -1.2058 H   0  0  0  0  0  0  0  0  0  0  0  0
   14.9659   -1.7818    3.2295 H   0  0  0  0  0  0  0  0  0  0  0  0
   10.6775    1.8335    0.2345 H   0  0  0  0  0  0  0  0  0  0  0  0
   12.3268    1.6658   -0.3963 H   0  0  0  0  0  0  0  0  0  0  0  0
   12.0570    1.5807    1.3518 H   0  0  0  0  0  0  0  0  0  0  0  0
    3.6018   -1.6877   -0.2357 H   0  0  0  0  0  0  0  0  0  0  0  0
    4.9159   -2.1475    0.8984 H   0  0  0  0  0  0  0  0  0  0  0  0
    3.3792   -1.5256    1.5163 H   0  0  0  0  0  0  0  0  0  0  0  0
    7.6685    2.9404    1.9679 H   0  0  0  0  0  0  0  0  0  0  0  0
    7.9821    1.6347    0.8248 H   0  0  0  0  0  0  0  0  0  0  0  0
    7.0735    1.3084    2.3167 H   0  0  0  0  0  0  0  0  0  0  0  0
    3.1521    3.5332    2.3587 H   0  0  0  0  0  0  0  0  0  0  0  0
    3.8132    4.4139   -0.4631 H   0  0  0  0  0  0  0  0  0  0  0  0
    4.2953    5.8624    2.1824 H   0  0  0  0  0  0  0  0  0  0  0  0
    4.4242    6.5824    0.5692 H   0  0  0  0  0  0  0  0  0  0  0  0
    5.5451    5.3144    1.0500 H   0  0  0  0  0  0  0  0  0  0  0  0
    1.7526    5.3589    1.5960 H   0  0  0  0  0  0  0  0  0  0  0  0
    1.4075    4.5856    0.0413 H   0  0  0  0  0  0  0  0  0  0  0  0
    2.1270    6.1844    0.0761 H   0  0  0  0  0  0  0  0  0  0  0  0
    2.7005    1.3823    1.6295 H   0  0  0  0  0  0  0  0  0  0  0  0
    1.4013   -0.0445   -0.2718 H   0  0  0  0  0  0  0  0  0  0  0  0
    0.6719    0.9308    1.9079 H   0  0  0  0  0  0  0  0  0  0  0  0
   -0.3682   -1.1637    1.0659 H   0  0  0  0  0  0  0  0  0  0  0  0
   -1.7156   -0.1953    0.4106 H   0  0  0  0  0  0  0  0  0  0  0  0
   -1.4067   -0.2298    2.1469 H   0  0  0  0  0  0  0  0  0  0  0  0
   -0.1662    3.1552    1.1475 H   0  0  0  0  0  0  0  0  0  0  0  0
   -1.3313    2.2826    2.1429 H   0  0  0  0  0  0  0  0  0  0  0  0
   -1.5672    2.3552    0.3971 H   0  0  0  0  0  0  0  0  0  0  0  0
   -0.1710    3.1261   -1.3488 H   0  0  0  0  0  0  0  0  0  0  0  0
   -1.1030    2.3379   -2.6265 H   0  0  0  0  0  0  0  0  0  0  0  0
    0.6362    2.5596   -2.8511 H   0  0  0  0  0  0  0  0  0  0  0  0
   -0.7654   -3.2133   -1.7477 H   0  0  0  0  0  0  0  0  0  0  0  0
   -0.8230   -2.3657   -3.2772 H   0  0  0  0  0  0  0  0  0  0  0  0
   -2.8120   -0.8771   -3.8043 H   0  0  0  0  0  0  0  0  0  0  0  0
   -5.1161   -0.2579   -3.3420 H   0  0  0  0  0  0  0  0  0  0  0  0
   -5.0179   -2.5662    0.3025 H   0  0  0  0  0  0  0  0  0  0  0  0
   -2.6741   -3.1349   -0.1293 H   0  0  0  0  0  0  0  0  0  0  0  0
   -6.8278   -0.1196   -1.8602 H   0  0  0  0  0  0  0  0  0  0  0  0
   -8.1517    0.3070    0.7923 H   0  0  0  0  0  0  0  0  0  0  0  0
   -9.8812    1.2929   -0.6820 H   0  0  0  0  0  0  0  0  0  0  0  0
   -8.2394    1.3738   -1.2720 H   0  0  0  0  0  0  0  0  0  0  0  0
   -9.6197    0.9790   -3.1079 H   0  0  0  0  0  0  0  0  0  0  0  0
   -8.7001   -0.4879   -2.8825 H   0  0  0  0  0  0  0  0  0  0  0  0
  -11.5707   -0.1298   -1.8372 H   0  0  0  0  0  0  0  0  0  0  0  0
  -11.2133   -0.6635   -3.4827 H   0  0  0  0  0  0  0  0  0  0  0  0
  -11.5309   -2.3662   -1.4936 H   0  0  0  0  0  0  0  0  0  0  0  0
  -11.0687   -4.4878   -1.8488 H   0  0  0  0  0  0  0  0  0  0  0  0
   -9.8105   -4.8976   -2.9075 H   0  0  0  0  0  0  0  0  0  0  0  0
  -10.1150   -1.7975    0.1127 H   0  0  0  0  0  0  0  0  0  0  0  0
  -10.8729   -2.5742    2.5081 H   0  0  0  0  0  0  0  0  0  0  0  0
  -12.8318   -1.9944    3.8771 H   0  0  0  0  0  0  0  0  0  0  0  0
  -13.1155    0.3461    4.7189 H   0  0  0  0  0  0  0  0  0  0  0  0
  -12.0847    0.9308    3.4091 H   0  0  0  0  0  0  0  0  0  0  0  0
  -13.6245    0.1255    3.0554 H   0  0  0  0  0  0  0  0  0  0  0  0
  -10.3247   -0.5526    4.8522 H   0  0  0  0  0  0  0  0  0  0  0  0
  -10.5489   -2.3116    4.8513 H   0  0  0  0  0  0  0  0  0  0  0  0
  -11.6108   -1.2790    5.8153 H   0  0  0  0  0  0  0  0  0  0  0  0
  -12.8620   -2.8365    1.4592 H   0  0  0  0  0  0  0  0  0  0  0  0
  -14.0087   -2.3703   -0.6814 H   0  0  0  0  0  0  0  0  0  0  0  0
  -15.0139   -1.9088    0.6998 H   0  0  0  0  0  0  0  0  0  0  0  0
  -15.7413   -1.0414   -1.5957 H   0  0  0  0  0  0  0  0  0  0  0  0
  -14.2881   -0.0702   -1.6524 H   0  0  0  0  0  0  0  0  0  0  0  0
  -16.1507    1.3238   -1.0091 H   0  0  0  0  0  0  0  0  0  0  0  0
  -15.0145    1.2411    0.3116 H   0  0  0  0  0  0  0  0  0  0  0  0
  -17.2472    1.1611    1.1867 H   0  0  0  0  0  0  0  0  0  0  0  0
  -16.4555   -0.3621    1.5297 H   0  0  0  0  0  0  0  0  0  0  0  0
  -17.6939   -1.4386   -0.3911 H   0  0  0  0  0  0  0  0  0  0  0  0
  -18.7462   -0.7819    0.8689 H   0  0  0  0  0  0  0  0  0  0  0  0
  -19.7485    1.2114   -3.8994 H   0  0  0  0  0  0  0  0  0  0  0  0
  -20.8916    2.5895   -1.9024 H   0  0  0  0  0  0  0  0  0  0  0  0
  1  2  1  0
  2  3  1  0
  3  4  1  0
  3  5  1  0
  5  6  1  0
  6  7  1  0
  7  8  1  0
  8  9  2  0
  8 10  1  0
 10 11  1  0
 11 12  1  0
 12 13  1  0
 13 14  1  0
 14 15  1  0
 15 16  1  0
 16 17  1  0
 16 18  1  0
 18 19  2  0
 18 20  1  0
 20 21  1  0
 21 22  1  0
 21 23  1  0
 23 24  1  0
 24 25  2  0
 25 26  1  0
 26 27  2  0
 27 28  1  0
 28 29  2  0
 23 30  1  0
 15 31  1  0
 31 32  1  0
  6 33  1  0
 33 34  1  0
  5 35  1  0
 35 36  1  0
 35 37  1  0
 37 38  2  0
 37 39  1  0
 39 40  1  0
 40 41  1  0
 40 42  1  0
 39 43  1  0
 43 44  1  0
 44 45  2  0
 44 46  1  0
 46 47  1  0
 47 48  1  0
 47 49  1  0
 46 50  1  0
 50 51  1  0
 50 52  1  0
 52 53  2  0
 52 54  1  0
 54 55  1  0
 55 56  1  0
 56 57  1  0
 57 58  2  0
 58 59  1  0
 59 60  2  0
 60 61  1  0
 59 62  1  0
 62 63  1  0
 63 64  2  0
 63 65  1  0
 65 66  1  0
 66 67  1  0
 67 68  1  0
 68 69  1  0
 69 70  1  0
 70 71  2  0
 70 72  1  0
 65 73  1  0
 73 74  1  0
 74 75  2  0
 74 76  1  0
 76 77  1  0
 77 78  1  0
 77 79  1  0
 76 80  1  0
 80 81  1  0
 81 82  2  0
 81 83  1  0
 83 84  1  0
 84 85  1  0
 85 86  1  0
 86 87  1  0
 87 88  1  0
 88 89  1  0
 89 90  2  0
 89 91  1  0
 91 92  2  0
 92 93  1  0
 93 94  2  0
 14 10  1  0
 29 24  1  0
 61 56  2  0
 93 88  1  0
  1 95  1  0
  1 96  1  0
  1 97  1  0
  2 98  1  0
  2 99  1  0
  3100  1  6
  4101  1  0
  4102  1  0
  4103  1  0
  5104  1  6
  6105  1  6
  7106  1  0
  7107  1  0
 11108  1  0
 11109  1  0
 12110  1  0
 12111  1  0
 13112  1  0
 13113  1  0
 14114  1  1
 15115  1  1
 16116  1  1
 17117  1  0
 17118  1  0
 17119  1  0
 20120  1  0
 21121  1  6
 22122  1  0
 22123  1  0
 22124  1  0
 23125  1  6
 25126  1  0
 26127  1  0
 27128  1  0
 28129  1  0
 29130  1  0
 30131  1  0
 32132  1  0
 32133  1  0
 32134  1  0
 34135  1  0
 34136  1  0
 34137  1  0
 36138  1  0
 36139  1  0
 36140  1  0
 39141  1  1
 40142  1  0
 41143  1  0
 41144  1  0
 41145  1  0
 42146  1  0
 42147  1  0
 42148  1  0
 43149  1  0
 46150  1  6
 47151  1  0
 48152  1  0
 48153  1  0
 48154  1  0
 49155  1  0
 49156  1  0
 49157  1  0
 51158  1  0
 51159  1  0
 51160  1  0
 55161  1  0
 55162  1  0
 57163  1  0
 58164  1  0
 60165  1  0
 61166  1  0
 62167  1  0
 65168  1  1
 66169  1  0
 66170  1  0
 67171  1  0
 67172  1  0
 68173  1  0
 68174  1  0
 69175  1  0
 72176  1  0
 72177  1  0
 73178  1  0
 76179  1  1
 77180  1  0
 78181  1  0
 78182  1  0
 78183  1  0
 79184  1  0
 79185  1  0
 79186  1  0
 80187  1  0
 83188  1  0
 83189  1  0
 84190  1  0
 84191  1  0
 85192  1  0
 85193  1  0
 86194  1  0
 86195  1  0
 87196  1  0
 87197  1  0
 91198  1  0
 92199  1  0
M  END
$$$$

     RDKit          3D

199202  0  0  0  0  0  0  0  0999 V2000
   -3.3445   -2.3003    2.2516 C   0  0  0  0  0  0  0  0  0  0  0  0
   -4.1817   -2.3283    0.9792 C   0  0  0  0  0  0  0  0  0  0  0  0
   -5.2394   -1.1981    0.8971 C   0  0  2  0  0  0  0  0  0  0  0  0
   -6.2199   -1.3232    2.0774 C   0  0  0  0  0  0  0  0  0  0  0  0
   -6.0281   -1.2148   -0.4610 C   0  0  1  0  0  0  0  0  0  0  0  0
   -6.9461    0.0433   -0.7300 C   0  0  1  0  0  0  0  0  0  0  0  0
   -8.4359   -0.3509   -0.6759 C   0  0  0  0  0  0  0  0  0  0  0  0
   -8.8475   -1.0797   -1.9377 C   0  0  0  0  0  0  0  0  0  0  0  0
   -8.3196   -0.7933   -3.0147 O   0  0  0  0  0  0  0  0  0  0  0  0
   -9.8238   -2.0627   -1.8772 N   0  0  0  0  0  0  0  0  0  0  0  0
   -9.5173   -3.2435   -2.6776 C   0  0  0  0  0  0  0  0  0  0  0  0
   -9.2280   -4.3246   -1.6187 C   0  0  0  0  0  0  0  0  0  0  0  0
   -9.7537   -3.7530   -0.2851 C   0  0  0  0  0  0  0  0  0  0  0  0
  -10.6013   -2.5655   -0.7417 C   0  0  1  0  0  0  0  0  0  0  0  0
  -11.1934   -1.6408    0.3447 C   0  0  1  0  0  0  0  0  0  0  0  0
  -12.0630   -0.4922   -0.2467 C   0  0  1  0  0  0  0  0  0  0  0  0
  -13.3005   -1.0088   -0.9960 C   0  0  0  0  0  0  0  0  0  0  0  0
  -12.4332    0.4898    0.8793 C   0  0  0  0  0  0  0  0  0  0  0  0
  -11.7746    0.5957    1.9111 O   0  0  0  0  0  0  0  0  0  0  0  0
  -13.5104    1.3018    0.6101 N   0  0  0  0  0  0  0  0  0  0  0  0
  -13.9941    2.3355    1.5385 C   0  0  2  0  0  0  0  0  0  0  0  0
  -14.5570    1.7096    2.8184 C   0  0  0  0  0  0  0  0  0  0  0  0
  -15.0781    3.1822    0.8078 C   0  0  1  0  0  0  0  0  0  0  0  0
  -15.6563    4.3605    1.5595 C   0  0  0  0  0  0  0  0  0  0  0  0
  -14.8377    5.3015    2.2047 C   0  0  0  0  0  0  0  0  0  0  0  0
  -15.3934    6.4006    2.8608 C   0  0  0  0  0  0  0  0  0  0  0  0
  -16.7770    6.5837    2.8713 C   0  0  0  0  0  0  0  0  0  0  0  0
  -17.6013    5.6646    2.2247 C   0  0  0  0  0  0  0  0  0  0  0  0
  -17.0474    4.5620    1.5756 C   0  0  0  0  0  0  0  0  0  0  0  0
  -14.5151    3.6582   -0.4331 O   0  0  0  0  0  0  0  0  0  0  0  0
  -12.0471   -2.4830    1.1571 O   0  0  0  0  0  0  0  0  0  0  0  0
  -11.5624   -2.6433    2.4878 C   0  0  0  0  0  0  0  0  0  0  0  0
   -6.7294    1.0797    0.2411 O   0  0  0  0  0  0  0  0  0  0  0  0
   -6.6527    2.3698   -0.3530 C   0  0  0  0  0  0  0  0  0  0  0  0
   -5.1850   -1.5036   -1.6535 N   0  0  0  0  0  0  0  0  0  0  0  0
   -5.4199   -2.7914   -2.2977 C   0  0  0  0  0  0  0  0  0  0  0  0
   -4.1409   -0.6384   -1.9817 C   0  0  0  0  0  0  0  0  0  0  0  0
   -3.9306    0.4029   -1.3485 O   0  0  0  0  0  0  0  0  0  0  0  0
   -3.2332   -0.9668   -3.1951 C   0  0  1  0  0  0  0  0  0  0  0  0
   -3.6095   -0.1663   -4.4678 C   0  0  0  0  0  0  0  0  0  0  0  0
   -3.6890    1.3498   -4.2560 C   0  0  0  0  0  0  0  0  0  0  0  0
   -4.9130   -0.6632   -5.0948 C   0  0  0  0  0  0  0  0  0  0  0  0
   -1.8432   -0.6970   -2.8086 N   0  0  0  0  0  0  0  0  0  0  0  0
   -1.1206   -1.6689   -2.1389 C   0  0  0  0  0  0  0  0  0  0  0  0
   -1.6030   -2.7795   -1.9073 O   0  0  0  0  0  0  0  0  0  0  0  0
    0.3856   -1.3613   -1.9180 C   0  0  1  0  0  0  0  0  0  0  0  0
    0.8216    0.1276   -1.7961 C   0  0  0  0  0  0  0  0  0  0  0  0
    2.3487    0.2651   -1.8281 C   0  0  0  0  0  0  0  0  0  0  0  0
    0.2571    0.9149   -0.6166 C   0  0  0  0  0  0  0  0  0  0  0  0
    0.9862   -2.3093   -0.9570 N   0  0  0  0  0  0  0  0  0  0  0  0
    1.8895   -3.3179   -1.4955 C   0  0  0  0  0  0  0  0  0  0  0  0
    0.7273   -2.2078    0.3978 C   0  0  0  0  0  0  0  0  0  0  0  0
   -0.0960   -1.4519    0.8930 O   0  0  0  0  0  0  0  0  0  0  0  0
    1.5600   -2.9925    1.1322 O   0  0  0  0  0  0  0  0  0  0  0  0
    1.8386   -2.5276    2.4602 C   0  0  0  0  0  0  0  0  0  0  0  0
    3.1612   -1.8055    2.3662 C   0  0  0  0  0  0  0  0  0  0  0  0
    3.1970   -0.4277    2.1124 C   0  0  0  0  0  0  0  0  0  0  0  0
    4.3967    0.2005    1.7664 C   0  0  0  0  0  0  0  0  0  0  0  0
    5.5814   -0.5319    1.6956 C   0  0  0  0  0  0  0  0  0  0  0  0
    5.5674   -1.8856    2.0534 C   0  0  0  0  0  0  0  0  0  0  0  0
    4.3645   -2.5213    2.3709 C   0  0  0  0  0  0  0  0  0  0  0  0
    6.7960   -0.0094    1.2127 N   0  0  0  0  0  0  0  0  0  0  0  0
    6.9516    1.1353    0.4345 C   0  0  0  0  0  0  0  0  0  0  0  0
    6.0940    1.9825    0.2024 O   0  0  0  0  0  0  0  0  0  0  0  0
    8.3668    1.2067   -0.1793 C   0  0  1  0  0  0  0  0  0  0  0  0
    8.5218    2.3092   -1.2381 C   0  0  0  0  0  0  0  0  0  0  0  0
    7.9474    1.9412   -2.6130 C   0  0  0  0  0  0  0  0  0  0  0  0
    8.4312    0.6153   -3.2139 C   0  0  0  0  0  0  0  0  0  0  0  0
    9.8677    0.4345   -3.1402 N   0  0  0  0  0  0  0  0  0  0  0  0
   10.4441   -0.5523   -3.8929 C   0  0  0  0  0  0  0  0  0  0  0  0
    9.8892   -1.2311   -4.7424 O   0  0  0  0  0  0  0  0  0  0  0  0
   11.7525   -0.7199   -3.5772 N   0  0  0  0  0  0  0  0  0  0  0  0
    9.3504    1.3562    0.8913 N   0  0  0  0  0  0  0  0  0  0  0  0
   10.6569    0.9678    0.6798 C   0  0  0  0  0  0  0  0  0  0  0  0
   10.9986    0.5210   -0.4184 O   0  0  0  0  0  0  0  0  0  0  0  0
   11.6425    1.1831    1.8707 C   0  0  1  0  0  0  0  0  0  0  0  0
   11.3443    0.3476    3.1451 C   0  0  0  0  0  0  0  0  0  0  0  0
    9.9771    0.6485    3.7732 C   0  0  0  0  0  0  0  0  0  0  0  0
   12.4188    0.5836    4.2147 C   0  0  0  0  0  0  0  0  0  0  0  0
   12.9937    1.0084    1.3197 N   0  0  0  0  0  0  0  0  0  0  0  0
   13.4780   -0.2359    0.9506 C   0  0  0  0  0  0  0  0  0  0  0  0
   13.0465   -1.2974    1.3893 O   0  0  0  0  0  0  0  0  0  0  0  0
   14.5493   -0.1585   -0.1243 C   0  0  0  0  0  0  0  0  0  0  0  0
   15.3804   -1.4327   -0.2484 C   0  0  0  0  0  0  0  0  0  0  0  0
   16.4073   -1.6397    0.8744 C   0  0  0  0  0  0  0  0  0  0  0  0
   17.4851   -0.5443    0.9215 C   0  0  0  0  0  0  0  0  0  0  0  0
   17.2083    0.5211    1.9913 C   0  0  0  0  0  0  0  0  0  0  0  0
   17.7123    1.8220    1.5913 N   0  0  0  0  0  0  0  0  0  0  0  0
   19.0276    2.1525    1.5281 C   0  0  0  0  0  0  0  0  0  0  0  0
   20.0043    1.4673    1.7695 O   0  0  0  0  0  0  0  0  0  0  0  0
   19.0961    3.5505    1.0909 C   0  0  0  0  0  0  0  0  0  0  0  0
   17.8473    3.9863    0.9144 C   0  0  0  0  0  0  0  0  0  0  0  0
   16.9383    2.8842    1.2503 C   0  0  0  0  0  0  0  0  0  0  0  0
   15.7199    2.9791    1.2369 O   0  0  0  0  0  0  0  0  0  0  0  0
   -2.8974   -1.3124    2.4086 H   0  0  0  0  0  0  0  0  0  0  0  0
   -3.9386   -2.5569    3.1346 H   0  0  0  0  0  0  0  0  0  0  0  0
   -2.5316   -3.0278    2.1805 H   0  0  0  0  0  0  0  0  0  0  0  0
   -4.6708   -3.3062    0.8926 H   0  0  0  0  0  0  0  0  0  0  0  0
   -3.4820   -2.2452    0.1408 H   0  0  0  0  0  0  0  0  0  0  0  0
   -4.7088   -0.2440    0.9882 H   0  0  0  0  0  0  0  0  0  0  0  0
   -6.6927   -2.3112    2.0875 H   0  0  0  0  0  0  0  0  0  0  0  0
   -5.7044   -1.1845    3.0344 H   0  0  0  0  0  0  0  0  0  0  0  0
   -7.0157   -0.5770    2.0416 H   0  0  0  0  0  0  0  0  0  0  0  0
   -6.6934   -2.0873   -0.3900 H   0  0  0  0  0  0  0  0  0  0  0  0
   -6.7138    0.4394   -1.7281 H   0  0  0  0  0  0  0  0  0  0  0  0
   -8.5845   -0.9707    0.2068 H   0  0  0  0  0  0  0  0  0  0  0  0
   -9.0682    0.5396   -0.5760 H   0  0  0  0  0  0  0  0  0  0  0  0
   -8.6836   -3.1175   -3.3725 H   0  0  0  0  0  0  0  0  0  0  0  0
  -10.4139   -3.5045   -3.2519 H   0  0  0  0  0  0  0  0  0  0  0  0
   -9.7240   -5.2656   -1.8801 H   0  0  0  0  0  0  0  0  0  0  0  0
   -8.1528   -4.5251   -1.5383 H   0  0  0  0  0  0  0  0  0  0  0  0
  -10.3247   -4.4954    0.2796 H   0  0  0  0  0  0  0  0  0  0  0  0
   -8.9140   -3.4181    0.3345 H   0  0  0  0  0  0  0  0  0  0  0  0
  -11.4809   -3.0374   -1.2068 H   0  0  0  0  0  0  0  0  0  0  0  0
  -10.4011   -1.2232    0.9705 H   0  0  0  0  0  0  0  0  0  0  0  0
  -11.4510    0.0860   -0.9491 H   0  0  0  0  0  0  0  0  0  0  0  0
  -13.0355   -1.7299   -1.7737 H   0  0  0  0  0  0  0  0  0  0  0  0
  -13.8197   -0.1963   -1.5141 H   0  0  0  0  0  0  0  0  0  0  0  0
  -14.0186   -1.4771   -0.3170 H   0  0  0  0  0  0  0  0  0  0  0  0
  -13.6647    1.5340   -0.3671 H   0  0  0  0  0  0  0  0  0  0  0  0
  -13.1242    2.9582    1.7825 H   0  0  0  0  0  0  0  0  0  0  0  0
  -15.4112    1.0608    2.5981 H   0  0  0  0  0  0  0  0  0  0  0  0
  -14.8840    2.4780    3.5268 H   0  0  0  0  0  0  0  0  0  0  0  0
  -13.8083    1.0970    3.3312 H   0  0  0  0  0  0  0  0  0  0  0  0
  -15.8964    2.5069    0.5160 H   0  0  0  0  0  0  0  0  0  0  0  0
  -13.7538    5.1923    2.1987 H   0  0  0  0  0  0  0  0  0  0  0  0
  -14.7509    7.1213    3.3633 H   0  0  0  0  0  0  0  0  0  0  0  0
  -17.2094    7.4428    3.3776 H   0  0  0  0  0  0  0  0  0  0  0  0
  -18.6807    5.8107    2.2262 H   0  0  0  0  0  0  0  0  0  0  0  0
  -17.7114    3.8607    1.0713 H   0  0  0  0  0  0  0  0  0  0  0  0
  -14.8881    4.5424   -0.5991 H   0  0  0  0  0  0  0  0  0  0  0  0
  -11.5908   -1.6939    3.0265 H   0  0  0  0  0  0  0  0  0  0  0  0
  -12.2144   -3.3542    3.0015 H   0  0  0  0  0  0  0  0  0  0  0  0
  -10.5448   -3.0429    2.4822 H   0  0  0  0  0  0  0  0  0  0  0  0
   -5.8052    2.4247   -1.0473 H   0  0  0  0  0  0  0  0  0  0  0  0
   -7.5855    2.6055   -0.8778 H   0  0  0  0  0  0  0  0  0  0  0  0
   -6.5006    3.1060    0.4419 H   0  0  0  0  0  0  0  0  0  0  0  0
   -4.9790   -2.8761   -3.2864 H   0  0  0  0  0  0  0  0  0  0  0  0
   -5.0249   -3.5855   -1.6534 H   0  0  0  0  0  0  0  0  0  0  0  0
   -6.4963   -2.9310   -2.4203 H   0  0  0  0  0  0  0  0  0  0  0  0
   -3.2601   -2.0295   -3.4387 H   0  0  0  0  0  0  0  0  0  0  0  0
   -2.8141   -0.3414   -5.2083 H   0  0  0  0  0  0  0  0  0  0  0  0
   -2.7816    1.7398   -3.7861 H   0  0  0  0  0  0  0  0  0  0  0  0
   -3.7994    1.8592   -5.2200 H   0  0  0  0  0  0  0  0  0  0  0  0
   -4.5510    1.6274   -3.6408 H   0  0  0  0  0  0  0  0  0  0  0  0
   -5.7674   -0.5166   -4.4262 H   0  0  0  0  0  0  0  0  0  0  0  0
   -4.8474   -1.7273   -5.3422 H   0  0  0  0  0  0  0  0  0  0  0  0
   -5.1238   -0.1241   -6.0266 H   0  0  0  0  0  0  0  0  0  0  0  0
   -1.6702    0.2560   -2.5091 H   0  0  0  0  0  0  0  0  0  0  0  0
    0.8025   -1.6628   -2.8955 H   0  0  0  0  0  0  0  0  0  0  0  0
    0.4561    0.6377   -2.6981 H   0  0  0  0  0  0  0  0  0  0  0  0
    2.8195   -0.2149   -0.9641 H   0  0  0  0  0  0  0  0  0  0  0  0
    2.7617   -0.1938   -2.7354 H   0  0  0  0  0  0  0  0  0  0  0  0
    2.6470    1.3201   -1.8308 H   0  0  0  0  0  0  0  0  0  0  0  0
    0.3656    1.9917   -0.7954 H   0  0  0  0  0  0  0  0  0  0  0  0
   -0.8094    0.7213   -0.4651 H   0  0  0  0  0  0  0  0  0  0  0  0
    0.7890    0.7036    0.3133 H   0  0  0  0  0  0  0  0  0  0  0  0
    2.0686   -4.1304   -0.7865 H   0  0  0  0  0  0  0  0  0  0  0  0
    2.8397   -2.8347   -1.7347 H   0  0  0  0  0  0  0  0  0  0  0  0
    1.4518   -3.7480   -2.4008 H   0  0  0  0  0  0  0  0  0  0  0  0
    1.0555   -1.8849    2.8756 H   0  0  0  0  0  0  0  0  0  0  0  0
    1.9201   -3.3967    3.1189 H   0  0  0  0  0  0  0  0  0  0  0  0
    2.2774    0.1526    2.1115 H   0  0  0  0  0  0  0  0  0  0  0  0
    4.3634    1.2608    1.5338 H   0  0  0  0  0  0  0  0  0  0  0  0
    6.4746   -2.4822    2.0198 H   0  0  0  0  0  0  0  0  0  0  0  0
    4.3610   -3.5963    2.5445 H   0  0  0  0  0  0  0  0  0  0  0  0
    7.6006   -0.6291    1.2603 H   0  0  0  0  0  0  0  0  0  0  0  0
    8.5528    0.2288   -0.6320 H   0  0  0  0  0  0  0  0  0  0  0  0
    8.0471    3.2362   -0.8922 H   0  0  0  0  0  0  0  0  0  0  0  0
    9.5827    2.5633   -1.3754 H   0  0  0  0  0  0  0  0  0  0  0  0
    8.2018    2.7514   -3.3053 H   0  0  0  0  0  0  0  0  0  0  0  0
    6.8520    1.9150   -2.5606 H   0  0  0  0  0  0  0  0  0  0  0  0
    7.9621   -0.2368   -2.7110 H   0  0  0  0  0  0  0  0  0  0  0  0
    8.1200    0.5626   -4.2652 H   0  0  0  0  0  0  0  0  0  0  0  0
   10.2868    0.4581   -2.2115 H   0  0  0  0  0  0  0  0  0  0  0  0
   12.2475   -1.3387   -4.2048 H   0  0  0  0  0  0  0  0  0  0  0  0
   12.2495    0.1190   -3.3069 H   0  0  0  0  0  0  0  0  0  0  0  0
    9.1306    1.9861    1.6541 H   0  0  0  0  0  0  0  0  0  0  0  0
   11.5841    2.2497    2.1278 H   0  0  0  0  0  0  0  0  0  0  0  0
   11.3380   -0.7183    2.8965 H   0  0  0  0  0  0  0  0  0  0  0  0
    9.8138    1.7262    3.8813 H   0  0  0  0  0  0  0  0  0  0  0  0
    9.8945    0.1957    4.7690 H   0  0  0  0  0  0  0  0  0  0  0  0
    9.1651    0.2233    3.1775 H   0  0  0  0  0  0  0  0  0  0  0  0
   12.4282    1.6297    4.5407 H   0  0  0  0  0  0  0  0  0  0  0  0
   13.4197    0.3276    3.8518 H   0  0  0  0  0  0  0  0  0  0  0  0
   12.2323   -0.0403    5.0965 H   0  0  0  0  0  0  0  0  0  0  0  0
   13.3896    1.8048    0.8304 H   0  0  0  0  0  0  0  0  0  0  0  0
   15.1878    0.7146    0.0211 H   0  0  0  0  0  0  0  0  0  0  0  0
   14.0146    0.0017   -1.0730 H   0  0  0  0  0  0  0  0  0  0  0  0
   15.9114   -1.4106   -1.2084 H   0  0  0  0  0  0  0  0  0  0  0  0
   14.7199   -2.3092   -0.2885 H   0  0  0  0  0  0  0  0  0  0  0  0
   15.9049   -1.7465    1.8425 H   0  0  0  0  0  0  0  0  0  0  0  0
   16.9063   -2.6002    0.6766 H   0  0  0  0  0  0  0  0  0  0  0  0
   17.5994   -0.0900   -0.0702 H   0  0  0  0  0  0  0  0  0  0  0  0
   18.4501   -1.0171    1.1533 H   0  0  0  0  0  0  0  0  0  0  0  0
   16.1404    0.6078    2.2104 H   0  0  0  0  0  0  0  0  0  0  0  0
   17.7146    0.2334    2.9200 H   0  0  0  0  0  0  0  0  0  0  0  0
   20.0219    4.0822    0.9445 H   0  0  0  0  0  0  0  0  0  0  0  0
   17.5144    4.9626    0.6035 H   0  0  0  0  0  0  0  0  0  0  0  0
  1  2  1  0
  2  3  1  0
  3  4  1  0
  3  5  1  0
  5  6  1  0
  6  7  1  0
  7  8  1  0
  8  9  2  0
  8 10  1  0
 10 11  1  0
 11 12  1  0
 12 13  1  0
 13 14  1  0
 14 15  1  0
 15 16  1  0
 16 17  1  0
 16 18  1  0
 18 19  2  0
 18 20  1  0
 20 21  1  0
 21 22  1  0
 21 23  1  0
 23 24  1  0
 24 25  2  0
 25 26  1  0
 26 27  2  0
 27 28  1  0
 28 29  2  0
 23 30  1  0
 15 31  1  0
 31 32  1  0
  6 33  1  0
 33 34  1  0
  5 35  1  0
 35 36  1  0
 35 37  1  0
 37 38  2  0
 37 39  1  0
 39 40  1  0
 40 41  1  0
 40 42  1  0
 39 43  1  0
 43 44  1  0
 44 45  2  0
 44 46  1  0
 46 47  1  0
 47 48  1  0
 47 49  1  0
 46 50  1  0
 50 51  1  0
 50 52  1  0
 52 53  2  0
 52 54  1  0
 54 55  1  0
 55 56  1  0
 56 57  1  0
 57 58  2  0
 58 59  1  0
 59 60  2  0
 60 61  1  0
 59 62  1  0
 62 63  1  0
 63 64  2  0
 63 65  1  0
 65 66  1  0
 66 67  1  0
 67 68  1  0
 68 69  1  0
 69 70  1  0
 70 71  2  0
 70 72  1  0
 65 73  1  0
 73 74  1  0
 74 75  2  0
 74 76  1  0
 76 77  1  0
 77 78  1  0
 77 79  1  0
 76 80  1  0
 80 81  1  0
 81 82  2  0
 81 83  1  0
 83 84  1  0
 84 85  1  0
 85 86  1  0
 86 87  1  0
 87 88  1  0
 88 89  1  0
 89 90  2  0
 89 91  1  0
 91 92  2  0
 92 93  1  0
 93 94  2  0
 14 10  1  0
 29 24  1  0
 61 56  2  0
 93 88  1  0
  1 95  1  0
  1 96  1  0
  1 97  1  0
  2 98  1  0
  2 99  1  0
  3100  1  1
  4101  1  0
  4102  1  0
  4103  1  0
  5104  1  1
  6105  1  6
  7106  1  0
  7107  1  0
 11108  1  0
 11109  1  0
 12110  1  0
 12111  1  0
 13112  1  0
 13113  1  0
 14114  1  6
 15115  1  1
 16116  1  6
 17117  1  0
 17118  1  0
 17119  1  0
 20120  1  0
 21121  1  1
 22122  1  0
 22123  1  0
 22124  1  0
 23125  1  6
 25126  1  0
 26127  1  0
 27128  1  0
 28129  1  0
 29130  1  0
 30131  1  0
 32132  1  0
 32133  1  0
 32134  1  0
 34135  1  0
 34136  1  0
 34137  1  0
 36138  1  0
 36139  1  0
 36140  1  0
 39141  1  6
 40142  1  0
 41143  1  0
 41144  1  0
 41145  1  0
 42146  1  0
 42147  1  0
 42148  1  0
 43149  1  0
 46150  1  6
 47151  1  0
 48152  1  0
 48153  1  0
 48154  1  0
 49155  1  0
 49156  1  0
 49157  1  0
 51158  1  0
 51159  1  0
 51160  1  0
 55161  1  0
 55162  1  0
 57163  1  0
 58164  1  0
 60165  1  0
 61166  1  0
 62167  1  0
 65168  1  6
 66169  1  0
 66170  1  0
 67171  1  0
 67172  1  0
 68173  1  0
 68174  1  0
 69175  1  0
 72176  1  0
 72177  1  0
 73178  1  0
 76179  1  1
 77180  1  0
 78181  1  0
 78182  1  0
 78183  1  0
 79184  1  0
 79185  1  0
 79186  1  0
 80187  1  0
 83188  1  0
 83189  1  0
 84190  1  0
 84191  1  0
 85192  1  0
 85193  1  0
 86194  1  0
 86195  1  0
 87196  1  0
 87197  1  0
 91198  1  0
 92199  1  0
M  END
$$$$

     RDKit          3D

199202  0  0  0  0  0  0  0  0999 V2000
    7.5181    4.2317   -0.6283 C   0  0  0  0  0  0  0  0  0  0  0  0
    6.5712    3.8127    0.4874 C   0  0  0  0  0  0  0  0  0  0  0  0
    6.9199    2.4694    1.1888 C   0  0  2  0  0  0  0  0  0  0  0  0
    8.3179    2.5573    1.8055 C   0  0  0  0  0  0  0  0  0  0  0  0
    6.7210    1.2257    0.2503 C   0  0  1  0  0  0  0  0  0  0  0  0
    6.9733   -0.1966    0.8773 C   0  0  1  0  0  0  0  0  0  0  0  0
    8.4463   -0.6499    0.8024 C   0  0  0  0  0  0  0  0  0  0  0  0
    8.8499   -1.1072   -0.5857 C   0  0  0  0  0  0  0  0  0  0  0  0
    7.9900   -1.3628   -1.4302 O   0  0  0  0  0  0  0  0  0  0  0  0
   10.2007   -1.2946   -0.8495 N   0  0  0  0  0  0  0  0  0  0  0  0
   10.5620   -2.0131   -2.0675 C   0  0  0  0  0  0  0  0  0  0  0  0
   11.7258   -2.8910   -1.6535 C   0  0  0  0  0  0  0  0  0  0  0  0
   12.4676   -2.0117   -0.6602 C   0  0  0  0  0  0  0  0  0  0  0  0
   11.3400   -1.2814    0.1083 C   0  0  1  0  0  0  0  0  0  0  0  0
   11.7647    0.1357    0.6374 C   0  0  1  0  0  0  0  0  0  0  0  0
   12.3610    0.1253    2.0691 C   0  0  1  0  0  0  0  0  0  0  0  0
   11.3022   -0.1216    3.1470 C   0  0  0  0  0  0  0  0  0  0  0  0
   13.4710   -0.9039    2.2180 C   0  0  0  0  0  0  0  0  0  0  0  0
   13.2411   -2.0899    2.4410 O   0  0  0  0  0  0  0  0  0  0  0  0
   14.7431   -0.4013    2.0677 N   0  0  0  0  0  0  0  0  0  0  0  0
   15.9478   -1.1964    2.3107 C   0  0  2  0  0  0  0  0  0  0  0  0
   16.0663   -1.5035    3.8097 C   0  0  0  0  0  0  0  0  0  0  0  0
   17.2290   -0.4499    1.8335 C   0  0  1  0  0  0  0  0  0  0  0  0
   17.4888   -0.4911    0.3404 C   0  0  0  0  0  0  0  0  0  0  0  0
   16.6578    0.1732   -0.5744 C   0  0  0  0  0  0  0  0  0  0  0  0
   16.9477    0.1633   -1.9397 C   0  0  0  0  0  0  0  0  0  0  0  0
   18.0713   -0.5134   -2.4106 C   0  0  0  0  0  0  0  0  0  0  0  0
   18.9022   -1.1881   -1.5179 C   0  0  0  0  0  0  0  0  0  0  0  0
   18.6147   -1.1731   -0.1510 C   0  0  0  0  0  0  0  0  0  0  0  0
   17.1802    0.9194    2.2682 O   0  0  0  0  0  0  0  0  0  0  0  0
   12.7048    0.8292   -0.2079 O   0  0  0  0  0  0  0  0  0  0  0  0
   12.1023    1.4474   -1.3423 C   0  0  0  0  0  0  0  0  0  0  0  0
    6.5380   -0.1933    2.2526 O   0  0  0  0  0  0  0  0  0  0  0  0
    6.0094   -1.4466    2.6703 C   0  0  0  0  0  0  0  0  0  0  0  0
    5.3463    1.2480   -0.3670 N   0  0  0  0  0  0  0  0  0  0  0  0
    4.2072    1.1970    0.5319 C   0  0  0  0  0  0  0  0  0  0  0  0
    5.2398    1.1344   -1.7517 C   0  0  0  0  0  0  0  0  0  0  0  0
    6.2666    1.1456   -2.4415 O   0  0  0  0  0  0  0  0  0  0  0  0
    3.8464    1.1834   -2.4764 C   0  0  1  0  0  0  0  0  0  0  0  0
    3.8418    0.3929   -3.8298 C   0  0  0  0  0  0  0  0  0  0  0  0
    4.2752   -1.0673   -3.6605 C   0  0  0  0  0  0  0  0  0  0  0  0
    4.6511    1.0661   -4.9434 C   0  0  0  0  0  0  0  0  0  0  0  0
    2.6184    0.8007   -1.7481 N   0  0  0  0  0  0  0  0  0  0  0  0
    1.4980    1.6182   -1.7692 C   0  0  0  0  0  0  0  0  0  0  0  0
    1.5688    2.8010   -2.1056 O   0  0  0  0  0  0  0  0  0  0  0  0
    0.1674    0.9429   -1.3210 C   0  0  1  0  0  0  0  0  0  0  0  0
   -0.1864    1.1222    0.1807 C   0  0  0  0  0  0  0  0  0  0  0  0
    0.3580   -0.0416    1.0166 C   0  0  0  0  0  0  0  0  0  0  0  0
    0.2658    2.4485    0.7962 C   0  0  0  0  0  0  0  0  0  0  0  0
   -0.9936    1.2883   -2.1874 N   0  0  0  0  0  0  0  0  0  0  0  0
   -1.2126    2.6738   -2.5823 C   0  0  0  0  0  0  0  0  0  0  0  0
   -1.8798    0.3377   -2.6732 C   0  0  0  0  0  0  0  0  0  0  0  0
   -2.7459    0.5733   -3.5075 O   0  0  0  0  0  0  0  0  0  0  0  0
   -1.6873   -0.8916   -2.1184 O   0  0  0  0  0  0  0  0  0  0  0  0
   -2.5662   -1.9195   -2.5929 C   0  0  0  0  0  0  0  0  0  0  0  0
   -3.8529   -1.9503   -1.8007 C   0  0  0  0  0  0  0  0  0  0  0  0
   -3.8775   -2.4293   -0.4847 C   0  0  0  0  0  0  0  0  0  0  0  0
   -5.0756   -2.4527    0.2374 C   0  0  0  0  0  0  0  0  0  0  0  0
   -6.2677   -1.9947   -0.3375 C   0  0  0  0  0  0  0  0  0  0  0  0
   -6.2419   -1.5016   -1.6419 C   0  0  0  0  0  0  0  0  0  0  0  0
   -5.0458   -1.4798   -2.3648 C   0  0  0  0  0  0  0  0  0  0  0  0
   -7.4241   -2.0324    0.4663 N   0  0  0  0  0  0  0  0  0  0  0  0
   -8.7122   -1.6514    0.1202 C   0  0  0  0  0  0  0  0  0  0  0  0
   -9.1014   -1.2958   -0.9905 O   0  0  0  0  0  0  0  0  0  0  0  0
   -9.6745   -1.6532    1.3309 C   0  0  1  0  0  0  0  0  0  0  0  0
   -9.3266   -0.5421    2.3418 C   0  0  0  0  0  0  0  0  0  0  0  0
   -9.0690    0.8598    1.7598 C   0  0  0  0  0  0  0  0  0  0  0  0
  -10.3152    1.5921    1.2654 C   0  0  0  0  0  0  0  0  0  0  0  0
  -11.1492    2.0127    2.3753 N   0  0  0  0  0  0  0  0  0  0  0  0
  -12.5000    1.8674    2.3456 C   0  0  0  0  0  0  0  0  0  0  0  0
  -13.1404    1.2983    1.4693 O   0  0  0  0  0  0  0  0  0  0  0  0
  -13.0935    2.4015    3.4408 N   0  0  0  0  0  0  0  0  0  0  0  0
  -11.0560   -1.5944    0.8829 N   0  0  0  0  0  0  0  0  0  0  0  0
  -12.0966   -2.1497    1.6011 C   0  0  0  0  0  0  0  0  0  0  0  0
  -11.9046   -2.6954    2.6849 O   0  0  0  0  0  0  0  0  0  0  0  0
  -13.4524   -2.1604    0.8400 C   0  0  1  0  0  0  0  0  0  0  0  0
  -14.7029   -2.3570    1.7303 C   0  0  0  0  0  0  0  0  0  0  0  0
  -14.8036   -3.7859    2.2708 C   0  0  0  0  0  0  0  0  0  0  0  0
  -14.8189   -1.3489    2.8782 C   0  0  0  0  0  0  0  0  0  0  0  0
  -13.5402   -0.9488    0.0189 N   0  0  0  0  0  0  0  0  0  0  0  0
  -14.3399   -0.8750   -1.0975 C   0  0  0  0  0  0  0  0  0  0  0  0
  -14.9787   -1.8311   -1.5310 O   0  0  0  0  0  0  0  0  0  0  0  0
  -14.3271    0.4829   -1.7787 C   0  0  0  0  0  0  0  0  0  0  0  0
  -15.7070    0.9454   -2.2469 C   0  0  0  0  0  0  0  0  0  0  0  0
  -16.5465    1.6162   -1.1515 C   0  0  0  0  0  0  0  0  0  0  0  0
  -16.9847    0.7166    0.0051 C   0  0  0  0  0  0  0  0  0  0  0  0
  -17.9334   -0.4218   -0.3877 C   0  0  0  0  0  0  0  0  0  0  0  0
  -19.2710    0.0548   -0.6823 N   0  0  0  0  0  0  0  0  0  0  0  0
  -19.7718    0.2719   -1.9245 C   0  0  0  0  0  0  0  0  0  0  0  0
  -19.2463    0.1162   -3.0114 O   0  0  0  0  0  0  0  0  0  0  0  0
  -21.1412    0.7730   -1.7522 C   0  0  0  0  0  0  0  0  0  0  0  0
  -21.3861    0.8523   -0.4448 C   0  0  0  0  0  0  0  0  0  0  0  0
  -20.1828    0.4002    0.2626 C   0  0  0  0  0  0  0  0  0  0  0  0
  -20.0821    0.3791    1.4757 O   0  0  0  0  0  0  0  0  0  0  0  0
    7.1432    5.1438   -1.1062 H   0  0  0  0  0  0  0  0  0  0  0  0
    7.6037    3.4653   -1.4038 H   0  0  0  0  0  0  0  0  0  0  0  0
    8.5208    4.4490   -0.2457 H   0  0  0  0  0  0  0  0  0  0  0  0
    5.5512    3.7775    0.0892 H   0  0  0  0  0  0  0  0  0  0  0  0
    6.5611    4.6091    1.2421 H   0  0  0  0  0  0  0  0  0  0  0  0
    6.2273    2.3911    2.0348 H   0  0  0  0  0  0  0  0  0  0  0  0
    9.0988    2.4962    1.0436 H   0  0  0  0  0  0  0  0  0  0  0  0
    8.4511    3.5042    2.3407 H   0  0  0  0  0  0  0  0  0  0  0  0
    8.4738    1.7567    2.5315 H   0  0  0  0  0  0  0  0  0  0  0  0
    7.4476    1.3328   -0.5626 H   0  0  0  0  0  0  0  0  0  0  0  0
    6.3561   -0.9199    0.3233 H   0  0  0  0  0  0  0  0  0  0  0  0
    8.6154   -1.4916    1.4813 H   0  0  0  0  0  0  0  0  0  0  0  0
    9.0846    0.1532    1.1444 H   0  0  0  0  0  0  0  0  0  0  0  0
   10.8712   -1.2729   -2.8115 H   0  0  0  0  0  0  0  0  0  0  0  0
    9.7358   -2.5981   -2.4806 H   0  0  0  0  0  0  0  0  0  0  0  0
   12.3464   -3.1936   -2.5022 H   0  0  0  0  0  0  0  0  0  0  0  0
   11.3608   -3.7951   -1.1528 H   0  0  0  0  0  0  0  0  0  0  0  0
   13.1126   -2.6110   -0.0098 H   0  0  0  0  0  0  0  0  0  0  0  0
   13.1121   -1.3199   -1.2164 H   0  0  0  0  0  0  0  0  0  0  0  0
   11.0011   -1.9098    0.9392 H   0  0  0  0  0  0  0  0  0  0  0  0
   10.8858    0.7804    0.6888 H   0  0  0  0  0  0  0  0  0  0  0  0
   12.7943    1.1148    2.2691 H   0  0  0  0  0  0  0  0  0  0  0  0
   10.7799   -1.0714    3.0059 H   0  0  0  0  0  0  0  0  0  0  0  0
   10.5583    0.6814    3.1470 H   0  0  0  0  0  0  0  0  0  0  0  0
   11.7593   -0.1480    4.1420 H   0  0  0  0  0  0  0  0  0  0  0  0
   14.8800    0.6055    2.0728 H   0  0  0  0  0  0  0  0  0  0  0  0
   15.8442   -2.1485    1.7756 H   0  0  0  0  0  0  0  0  0  0  0  0
   15.2029   -2.0698    4.1718 H   0  0  0  0  0  0  0  0  0  0  0  0
   16.1216   -0.5835    4.3983 H   0  0  0  0  0  0  0  0  0  0  0  0
   16.9596   -2.1014    4.0215 H   0  0  0  0  0  0  0  0  0  0  0  0
   18.0977   -0.8931    2.3362 H   0  0  0  0  0  0  0  0  0  0  0  0
   15.7735    0.7068   -0.2307 H   0  0  0  0  0  0  0  0  0  0  0  0
   16.2964    0.6892   -2.6358 H   0  0  0  0  0  0  0  0  0  0  0  0
   18.2933   -0.5217   -3.4755 H   0  0  0  0  0  0  0  0  0  0  0  0
   19.7766   -1.7184   -1.8865 H   0  0  0  0  0  0  0  0  0  0  0  0
   19.2829   -1.7047    0.5253 H   0  0  0  0  0  0  0  0  0  0  0  0
   17.8121    1.4103    1.7121 H   0  0  0  0  0  0  0  0  0  0  0  0
   11.2763    2.0995   -1.0446 H   0  0  0  0  0  0  0  0  0  0  0  0
   12.8614    2.0613   -1.8377 H   0  0  0  0  0  0  0  0  0  0  0  0
   11.7557    0.6996   -2.0547 H   0  0  0  0  0  0  0  0  0  0  0  0
    5.7176   -1.3625    3.7195 H   0  0  0  0  0  0  0  0  0  0  0  0
    6.7546   -2.2419    2.5738 H   0  0  0  0  0  0  0  0  0  0  0  0
    5.1162   -1.6943    2.0858 H   0  0  0  0  0  0  0  0  0  0  0  0
    3.7324    0.2155    0.4473 H   0  0  0  0  0  0  0  0  0  0  0  0
    4.4974    1.3327    1.5743 H   0  0  0  0  0  0  0  0  0  0  0  0
    3.5154    2.0016    0.2747 H   0  0  0  0  0  0  0  0  0  0  0  0
    3.7409    2.2497   -2.7278 H   0  0  0  0  0  0  0  0  0  0  0  0
    2.8040    0.3749   -4.1910 H   0  0  0  0  0  0  0  0  0  0  0  0
    4.1119   -1.6275   -4.5890 H   0  0  0  0  0  0  0  0  0  0  0  0
    5.3366   -1.1568   -3.4091 H   0  0  0  0  0  0  0  0  0  0  0  0
    3.7007   -1.5689   -2.8732 H   0  0  0  0  0  0  0  0  0  0  0  0
    4.4071    0.6113   -5.9112 H   0  0  0  0  0  0  0  0  0  0  0  0
    5.7293    0.9557   -4.8033 H   0  0  0  0  0  0  0  0  0  0  0  0
    4.4201    2.1350   -5.0149 H   0  0  0  0  0  0  0  0  0  0  0  0
    2.5065   -0.1824   -1.5351 H   0  0  0  0  0  0  0  0  0  0  0  0
    0.3421   -0.1293   -1.4861 H   0  0  0  0  0  0  0  0  0  0  0  0
   -1.2827    1.0809    0.2845 H   0  0  0  0  0  0  0  0  0  0  0  0
    0.0811    0.0749    2.0710 H   0  0  0  0  0  0  0  0  0  0  0  0
   -0.0619   -0.9929    0.6742 H   0  0  0  0  0  0  0  0  0  0  0  0
    1.4477   -0.1091    0.9540 H   0  0  0  0  0  0  0  0  0  0  0  0
   -0.1114    2.5460    1.8215 H   0  0  0  0  0  0  0  0  0  0  0  0
    1.3561    2.5287    0.8448 H   0  0  0  0  0  0  0  0  0  0  0  0
   -0.1160    3.3054    0.2364 H   0  0  0  0  0  0  0  0  0  0  0  0
   -1.1107    3.3232   -1.7141 H   0  0  0  0  0  0  0  0  0  0  0  0
   -0.5006    2.9500   -3.3620 H   0  0  0  0  0  0  0  0  0  0  0  0
   -2.2174    2.8195   -2.9885 H   0  0  0  0  0  0  0  0  0  0  0  0
   -2.7502   -1.8315   -3.6704 H   0  0  0  0  0  0  0  0  0  0  0  0
   -2.0471   -2.8776   -2.4558 H   0  0  0  0  0  0  0  0  0  0  0  0
   -2.9626   -2.7890   -0.0163 H   0  0  0  0  0  0  0  0  0  0  0  0
   -5.0574   -2.8343    1.2528 H   0  0  0  0  0  0  0  0  0  0  0  0
   -7.1321   -1.1196   -2.1318 H   0  0  0  0  0  0  0  0  0  0  0  0
   -5.0485   -1.0798   -3.3783 H   0  0  0  0  0  0  0  0  0  0  0  0
   -7.2921   -2.3941    1.4014 H   0  0  0  0  0  0  0  0  0  0  0  0
   -9.5525   -2.6192    1.8370 H   0  0  0  0  0  0  0  0  0  0  0  0
   -8.4039   -0.8415    2.8592 H   0  0  0  0  0  0  0  0  0  0  0  0
  -10.1010   -0.4819    3.1162 H   0  0  0  0  0  0  0  0  0  0  0  0
   -8.3413    0.8014    0.9417 H   0  0  0  0  0  0  0  0  0  0  0  0
   -8.5925    1.4679    2.5408 H   0  0  0  0  0  0  0  0  0  0  0  0
  -10.8789    0.9924    0.5482 H   0  0  0  0  0  0  0  0  0  0  0  0
  -10.0117    2.5122    0.7499 H   0  0  0  0  0  0  0  0  0  0  0  0
  -10.8354    2.8199    2.8995 H   0  0  0  0  0  0  0  0  0  0  0  0
  -12.6034    2.2464    4.3107 H   0  0  0  0  0  0  0  0  0  0  0  0
  -14.0809    2.1687    3.4954 H   0  0  0  0  0  0  0  0  0  0  0  0
  -11.2441   -1.2820   -0.0696 H   0  0  0  0  0  0  0  0  0  0  0  0
  -13.3909   -3.0037    0.1385 H   0  0  0  0  0  0  0  0  0  0  0  0
  -15.5907   -2.2095    1.1023 H   0  0  0  0  0  0  0  0  0  0  0  0
  -15.7605   -3.9333    2.7839 H   0  0  0  0  0  0  0  0  0  0  0  0
  -14.0115   -4.0152    2.9877 H   0  0  0  0  0  0  0  0  0  0  0  0
  -14.7512   -4.5150    1.4578 H   0  0  0  0  0  0  0  0  0  0  0  0
  -15.7447   -1.5125    3.4415 H   0  0  0  0  0  0  0  0  0  0  0  0
  -14.8494   -0.3239    2.5038 H   0  0  0  0  0  0  0  0  0  0  0  0
  -13.9889   -1.4270    3.5852 H   0  0  0  0  0  0  0  0  0  0  0  0
  -13.3062   -0.0650    0.4852 H   0  0  0  0  0  0  0  0  0  0  0  0
  -13.6750    0.3692   -2.6544 H   0  0  0  0  0  0  0  0  0  0  0  0
  -13.8651    1.2425   -1.1395 H   0  0  0  0  0  0  0  0  0  0  0  0
  -15.5539    1.6920   -3.0368 H   0  0  0  0  0  0  0  0  0  0  0  0
  -16.2639    0.1248   -2.7110 H   0  0  0  0  0  0  0  0  0  0  0  0
  -17.4304    2.0705   -1.6139 H   0  0  0  0  0  0  0  0  0  0  0  0
  -15.9683    2.4533   -0.7363 H   0  0  0  0  0  0  0  0  0  0  0  0
  -17.4638    1.3454    0.7659 H   0  0  0  0  0  0  0  0  0  0  0  0
  -16.1015    0.2923    0.4873 H   0  0  0  0  0  0  0  0  0  0  0  0
  -17.5574   -0.9849   -1.2475 H   0  0  0  0  0  0  0  0  0  0  0  0
  -18.0138   -1.1142    0.4587 H   0  0  0  0  0  0  0  0  0  0  0  0
  -21.7852    1.0260   -2.5767 H   0  0  0  0  0  0  0  0  0  0  0  0
  -22.2800    1.1824    0.0576 H   0  0  0  0  0  0  0  0  0  0  0  0
  1  2  1  0
  2  3  1  0
  3  4  1  0
  3  5  1  0
  5  6  1  0
  6  7  1  0
  7  8  1  0
  8  9  2  0
  8 10  1  0
 10 11  1  0
 11 12  1  0
 12 13  1  0
 13 14  1  0
 14 15  1  0
 15 16  1  0
 16 17  1  0
 16 18  1  0
 18 19  2  0
 18 20  1  0
 20 21  1  0
 21 22  1  0
 21 23  1  0
 23 24  1  0
 24 25  2  0
 25 26  1  0
 26 27  2  0
 27 28  1  0
 28 29  2  0
 23 30  1  0
 15 31  1  0
 31 32  1  0
  6 33  1  0
 33 34  1  0
  5 35  1  0
 35 36  1  0
 35 37  1  0
 37 38  2  0
 37 39  1  0
 39 40  1  0
 40 41  1  0
 40 42  1  0
 39 43  1  0
 43 44  1  0
 44 45  2  0
 44 46  1  0
 46 47  1  0
 47 48  1  0
 47 49  1  0
 46 50  1  0
 50 51  1  0
 50 52  1  0
 52 53  2  0
 52 54  1  0
 54 55  1  0
 55 56  1  0
 56 57  1  0
 57 58  2  0
 58 59  1  0
 59 60  2  0
 60 61  1  0
 59 62  1  0
 62 63  1  0
 63 64  2  0
 63 65  1  0
 65 66  1  0
 66 67  1  0
 67 68  1  0
 68 69  1  0
 69 70  1  0
 70 71  2  0
 70 72  1  0
 65 73  1  0
 73 74  1  0
 74 75  2  0
 74 76  1  0
 76 77  1  0
 77 78  1  0
 77 79  1  0
 76 80  1  0
 80 81  1  0
 81 82  2  0
 81 83  1  0
 83 84  1  0
 84 85  1  0
 85 86  1  0
 86 87  1  0
 87 88  1  0
 88 89  1  0
 89 90  2  0
 89 91  1  0
 91 92  2  0
 92 93  1  0
 93 94  2  0
 14 10  1  0
 29 24  1  0
 61 56  2  0
 93 88  1  0
  1 95  1  0
  1 96  1  0
  1 97  1  0
  2 98  1  0
  2 99  1  0
  3100  1  1
  4101  1  0
  4102  1  0
  4103  1  0
  5104  1  6
  6105  1  6
  7106  1  0
  7107  1  0
 11108  1  0
 11109  1  0
 12110  1  0
 12111  1  0
 13112  1  0
 13113  1  0
 14114  1  1
 15115  1  1
 16116  1  1
 17117  1  0
 17118  1  0
 17119  1  0
 20120  1  0
 21121  1  6
 22122  1  0
 22123  1  0
 22124  1  0
 23125  1  1
 25126  1  0
 26127  1  0
 27128  1  0
 28129  1  0
 29130  1  0
 30131  1  0
 32132  1  0
 32133  1  0
 32134  1  0
 34135  1  0
 34136  1  0
 34137  1  0
 36138  1  0
 36139  1  0
 36140  1  0
 39141  1  6
 40142  1  0
 41143  1  0
 41144  1  0
 41145  1  0
 42146  1  0
 42147  1  0
 42148  1  0
 43149  1  0
 46150  1  1
 47151  1  0
 48152  1  0
 48153  1  0
 48154  1  0
 49155  1  0
 49156  1  0
 49157  1  0
 51158  1  0
 51159  1  0
 51160  1  0
 55161  1  0
 55162  1  0
 57163  1  0
 58164  1  0
 60165  1  0
 61166  1  0
 62167  1  0
 65168  1  1
 66169  1  0
 66170  1  0
 67171  1  0
 67172  1  0
 68173  1  0
 68174  1  0
 69175  1  0
 72176  1  0
 72177  1  0
 73178  1  0
 76179  1  6
 77180  1  0
 78181  1  0
 78182  1  0
 78183  1  0
 79184  1  0
 79185  1  0
 79186  1  0
 80187  1  0
 83188  1  0
 83189  1  0
 84190  1  0
 84191  1  0
 85192  1  0
 85193  1  0
 86194  1  0
 86195  1  0
 87196  1  0
 87197  1  0
 91198  1  0
 92199  1  0
M  END
$$$$

     RDKit          3D

199202  0  0  0  0  0  0  0  0999 V2000
   -5.9920   -2.4523    4.5015 C   0  0  0  0  0  0  0  0  0  0  0  0
   -5.7012   -1.2824    3.5669 C   0  0  0  0  0  0  0  0  0  0  0  0
   -5.3904   -1.7235    2.1235 C   0  0  2  0  0  0  0  0  0  0  0  0
   -4.0674   -2.5048    2.0626 C   0  0  0  0  0  0  0  0  0  0  0  0
   -5.4284   -0.5917    1.0279 C   0  0  1  0  0  0  0  0  0  0  0  0
   -6.8001    0.1780    0.8453 C   0  0  1  0  0  0  0  0  0  0  0  0
   -8.0016   -0.7851    0.8107 C   0  0  0  0  0  0  0  0  0  0  0  0
   -9.2820   -0.1010    0.3489 C   0  0  0  0  0  0  0  0  0  0  0  0
   -9.2625    0.8836   -0.3884 O   0  0  0  0  0  0  0  0  0  0  0  0
  -10.4664   -0.6548    0.7960 N   0  0  0  0  0  0  0  0  0  0  0  0
  -10.6174   -1.9834    1.3692 C   0  0  0  0  0  0  0  0  0  0  0  0
  -12.0475   -2.3696    1.0335 C   0  0  0  0  0  0  0  0  0  0  0  0
  -12.7815   -1.0419    1.1421 C   0  0  0  0  0  0  0  0  0  0  0  0
  -11.7827   -0.0227    0.5606 C   0  0  1  0  0  0  0  0  0  0  0  0
  -11.9381    1.3940    1.1963 C   0  0  1  0  0  0  0  0  0  0  0  0
  -13.3697    1.9767    1.1097 C   0  0  1  0  0  0  0  0  0  0  0  0
  -13.4031    3.4157    1.6472 C   0  0  0  0  0  0  0  0  0  0  0  0
  -13.9709    1.9708   -0.2899 C   0  0  0  0  0  0  0  0  0  0  0  0
  -13.3114    1.8914   -1.3165 O   0  0  0  0  0  0  0  0  0  0  0  0
  -15.3502    2.0852   -0.2783 N   0  0  0  0  0  0  0  0  0  0  0  0
  -16.1429    2.2847   -1.5050 C   0  0  2  0  0  0  0  0  0  0  0  0
  -16.0933    3.7533   -1.9219 C   0  0  0  0  0  0  0  0  0  0  0  0
  -17.5936    1.7886   -1.2397 C   0  0  1  0  0  0  0  0  0  0  0  0
  -18.5254    1.8768   -2.4263 C   0  0  0  0  0  0  0  0  0  0  0  0
  -19.5965    2.7853   -2.4161 C   0  0  0  0  0  0  0  0  0  0  0  0
  -20.4611    2.8783   -3.5079 C   0  0  0  0  0  0  0  0  0  0  0  0
  -20.2677    2.0674   -4.6232 C   0  0  0  0  0  0  0  0  0  0  0  0
  -19.2104    1.1613   -4.6474 C   0  0  0  0  0  0  0  0  0  0  0  0
  -18.3432    1.0671   -3.5577 C   0  0  0  0  0  0  0  0  0  0  0  0
  -17.5605    0.4209   -0.7987 O   0  0  0  0  0  0  0  0  0  0  0  0
  -11.6718    1.2945    2.6203 O   0  0  0  0  0  0  0  0  0  0  0  0
  -10.4522    1.9091    3.0082 C   0  0  0  0  0  0  0  0  0  0  0  0
   -7.0208    1.1013    1.9239 O   0  0  0  0  0  0  0  0  0  0  0  0
   -7.0746    2.4573    1.4867 C   0  0  0  0  0  0  0  0  0  0  0  0
   -4.2547    0.3361    1.0609 N   0  0  0  0  0  0  0  0  0  0  0  0
   -4.0535    1.1783    2.2350 C   0  0  0  0  0  0  0  0  0  0  0  0
   -3.1973    0.3672    0.1534 C   0  0  0  0  0  0  0  0  0  0  0  0
   -2.2857    1.2002    0.2693 O   0  0  0  0  0  0  0  0  0  0  0  0
   -3.1451   -0.6127   -1.0439 C   0  0  1  0  0  0  0  0  0  0  0  0
   -4.0155   -0.1355   -2.2278 C   0  0  0  0  0  0  0  0  0  0  0  0
   -4.1319   -1.2432   -3.2806 C   0  0  0  0  0  0  0  0  0  0  0  0
   -3.5089    1.1512   -2.8840 C   0  0  0  0  0  0  0  0  0  0  0  0
   -1.7236   -0.7315   -1.4142 N   0  0  0  0  0  0  0  0  0  0  0  0
   -0.9449   -1.7702   -0.9354 C   0  0  0  0  0  0  0  0  0  0  0  0
   -1.4446   -2.7571   -0.3872 O   0  0  0  0  0  0  0  0  0  0  0  0
    0.5933   -1.5696   -1.1094 C   0  0  1  0  0  0  0  0  0  0  0  0
    1.2323   -0.7283    0.0406 C   0  0  0  0  0  0  0  0  0  0  0  0
    0.6072   -0.9653    1.4163 C   0  0  0  0  0  0  0  0  0  0  0  0
    1.2384    0.7697   -0.2828 C   0  0  0  0  0  0  0  0  0  0  0  0
    1.3926   -2.8013   -1.3498 N   0  0  0  0  0  0  0  0  0  0  0  0
    1.0050   -4.0509   -0.7144 C   0  0  0  0  0  0  0  0  0  0  0  0
    2.5704   -2.7843   -2.0903 C   0  0  0  0  0  0  0  0  0  0  0  0
    3.2583   -3.7752   -2.3121 O   0  0  0  0  0  0  0  0  0  0  0  0
    2.8883   -1.5364   -2.5376 O   0  0  0  0  0  0  0  0  0  0  0  0
    4.1258   -1.4286   -3.2590 C   0  0  0  0  0  0  0  0  0  0  0  0
    5.2969   -1.2394   -2.3244 C   0  0  0  0  0  0  0  0  0  0  0  0
    6.4908   -1.9401   -2.5301 C   0  0  0  0  0  0  0  0  0  0  0  0
    7.5676   -1.7895   -1.6457 C   0  0  0  0  0  0  0  0  0  0  0  0
    7.4692   -0.9424   -0.5366 C   0  0  0  0  0  0  0  0  0  0  0  0
    6.2971   -0.2081   -0.3570 C   0  0  0  0  0  0  0  0  0  0  0  0
    5.2233   -0.3520   -1.2446 C   0  0  0  0  0  0  0  0  0  0  0  0
    8.5480   -0.9428    0.3762 N   0  0  0  0  0  0  0  0  0  0  0  0
    8.6056   -0.2892    1.5966 C   0  0  0  0  0  0  0  0  0  0  0  0
    7.9143    0.6651    1.9363 O   0  0  0  0  0  0  0  0  0  0  0  0
    9.6470   -0.8955    2.5680 C   0  0  1  0  0  0  0  0  0  0  0  0
    9.1589   -2.2550    3.1220 C   0  0  0  0  0  0  0  0  0  0  0  0
    9.1099   -3.4812    2.2011 C   0  0  0  0  0  0  0  0  0  0  0  0
   10.4651   -3.9866    1.7220 C   0  0  0  0  0  0  0  0  0  0  0  0
   10.3132   -5.1932    0.9296 N   0  0  0  0  0  0  0  0  0  0  0  0
   11.1891   -6.2340    1.0422 C   0  0  0  0  0  0  0  0  0  0  0  0
   12.0971   -6.3276    1.8562 O   0  0  0  0  0  0  0  0  0  0  0  0
   10.9527   -7.2032    0.1245 N   0  0  0  0  0  0  0  0  0  0  0  0
   10.9857   -0.8486    1.9698 N   0  0  0  0  0  0  0  0  0  0  0  0
   12.0981   -1.1992    2.7309 C   0  0  0  0  0  0  0  0  0  0  0  0
   12.0237   -1.8691    3.7531 O   0  0  0  0  0  0  0  0  0  0  0  0
   13.4440   -0.6264    2.2159 C   0  0  1  0  0  0  0  0  0  0  0  0
   14.6076   -1.6216    2.4627 C   0  0  0  0  0  0  0  0  0  0  0  0
   15.9786   -1.0004    2.1796 C   0  0  0  0  0  0  0  0  0  0  0  0
   14.4566   -2.9216    1.6629 C   0  0  0  0  0  0  0  0  0  0  0  0
   13.3556   -0.1890    0.8176 N   0  0  0  0  0  0  0  0  0  0  0  0
   14.0058    0.9574    0.3982 C   0  0  0  0  0  0  0  0  0  0  0  0
   14.4908    1.7654    1.1800 O   0  0  0  0  0  0  0  0  0  0  0  0
   14.0536    1.1353   -1.1085 C   0  0  0  0  0  0  0  0  0  0  0  0
   15.4521    1.5349   -1.5851 C   0  0  0  0  0  0  0  0  0  0  0  0
   15.7288    3.0359   -1.4511 C   0  0  0  0  0  0  0  0  0  0  0  0
   17.1867    3.3612   -1.7926 C   0  0  0  0  0  0  0  0  0  0  0  0
   17.5377    4.8341   -1.5712 C   0  0  0  0  0  0  0  0  0  0  0  0
   16.9221    5.7110   -2.5469 N   0  0  0  0  0  0  0  0  0  0  0  0
   15.7554    6.3766   -2.3703 C   0  0  0  0  0  0  0  0  0  0  0  0
   15.0080    6.3772   -1.4093 O   0  0  0  0  0  0  0  0  0  0  0  0
   15.5009    7.1384   -3.5966 C   0  0  0  0  0  0  0  0  0  0  0  0
   16.4982    6.8863   -4.4440 C   0  0  0  0  0  0  0  0  0  0  0  0
   17.4265    5.9661   -3.7804 C   0  0  0  0  0  0  0  0  0  0  0  0
   18.4485    5.5491   -4.2949 O   0  0  0  0  0  0  0  0  0  0  0  0
   -6.7788   -3.0959    4.0965 H   0  0  0  0  0  0  0  0  0  0  0  0
   -5.0999   -3.0595    4.6787 H   0  0  0  0  0  0  0  0  0  0  0  0
   -6.3289   -2.0786    5.4738 H   0  0  0  0  0  0  0  0  0  0  0  0
   -6.5786   -0.6318    3.5861 H   0  0  0  0  0  0  0  0  0  0  0  0
   -4.8640   -0.7173    3.9880 H   0  0  0  0  0  0  0  0  0  0  0  0
   -6.1696   -2.4444    1.8400 H   0  0  0  0  0  0  0  0  0  0  0  0
   -3.8901   -2.8847    1.0531 H   0  0  0  0  0  0  0  0  0  0  0  0
   -4.0900   -3.3786    2.7196 H   0  0  0  0  0  0  0  0  0  0  0  0
   -3.2162   -1.8847    2.3593 H   0  0  0  0  0  0  0  0  0  0  0  0
   -5.3472   -1.1500    0.0905 H   0  0  0  0  0  0  0  0  0  0  0  0
   -6.7397    0.7228   -0.1078 H   0  0  0  0  0  0  0  0  0  0  0  0
   -8.1697   -1.1849    1.8160 H   0  0  0  0  0  0  0  0  0  0  0  0
   -7.8093   -1.6124    0.1184 H   0  0  0  0  0  0  0  0  0  0  0  0
   -9.8900   -2.6874    0.9582 H   0  0  0  0  0  0  0  0  0  0  0  0
  -10.4724   -1.8982    2.4514 H   0  0  0  0  0  0  0  0  0  0  0  0
  -12.1079   -2.7451    0.0038 H   0  0  0  0  0  0  0  0  0  0  0  0
  -12.4455   -3.1347    1.7052 H   0  0  0  0  0  0  0  0  0  0  0  0
  -12.9990   -0.8402    2.1979 H   0  0  0  0  0  0  0  0  0  0  0  0
  -13.7313   -1.0469    0.5973 H   0  0  0  0  0  0  0  0  0  0  0  0
  -11.9006    0.0305   -0.5275 H   0  0  0  0  0  0  0  0  0  0  0  0
  -11.2331    2.0879    0.7204 H   0  0  0  0  0  0  0  0  0  0  0  0
  -14.0279    1.3784    1.7550 H   0  0  0  0  0  0  0  0  0  0  0  0
  -13.0811    3.4608    2.6915 H   0  0  0  0  0  0  0  0  0  0  0  0
  -12.7462    4.0667    1.0601 H   0  0  0  0  0  0  0  0  0  0  0  0
  -14.4100    3.8430    1.5986 H   0  0  0  0  0  0  0  0  0  0  0  0
  -15.7869    2.3596    0.5942 H   0  0  0  0  0  0  0  0  0  0  0  0
  -15.6795    1.6734   -2.2894 H   0  0  0  0  0  0  0  0  0  0  0  0
  -16.5406    4.3947   -1.1535 H   0  0  0  0  0  0  0  0  0  0  0  0
  -15.0586    4.0844   -2.0655 H   0  0  0  0  0  0  0  0  0  0  0  0
  -16.6271    3.9230   -2.8620 H   0  0  0  0  0  0  0  0  0  0  0  0
  -18.0156    2.3574   -0.4002 H   0  0  0  0  0  0  0  0  0  0  0  0
  -19.7713    3.4217   -1.5513 H   0  0  0  0  0  0  0  0  0  0  0  0
  -21.2918    3.5799   -3.4852 H   0  0  0  0  0  0  0  0  0  0  0  0
  -20.9447    2.1353   -5.4699 H   0  0  0  0  0  0  0  0  0  0  0  0
  -19.0631    0.5209   -5.5122 H   0  0  0  0  0  0  0  0  0  0  0  0
  -17.5304    0.3420   -3.5861 H   0  0  0  0  0  0  0  0  0  0  0  0
  -16.6524    0.2589   -0.4846 H   0  0  0  0  0  0  0  0  0  0  0  0
   -9.6018    1.3696    2.5949 H   0  0  0  0  0  0  0  0  0  0  0  0
  -10.4267    2.9574    2.6965 H   0  0  0  0  0  0  0  0  0  0  0  0
  -10.3829    1.8700    4.0981 H   0  0  0  0  0  0  0  0  0  0  0  0
   -7.9570    2.6328    0.8671 H   0  0  0  0  0  0  0  0  0  0  0  0
   -6.1701    2.7283    0.9339 H   0  0  0  0  0  0  0  0  0  0  0  0
   -7.1454    3.0956    2.3714 H   0  0  0  0  0  0  0  0  0  0  0  0
   -4.9262    1.2262    2.8815 H   0  0  0  0  0  0  0  0  0  0  0  0
   -3.8015    2.1980    1.9226 H   0  0  0  0  0  0  0  0  0  0  0  0
   -3.2110    0.7758    2.8103 H   0  0  0  0  0  0  0  0  0  0  0  0
   -3.4867   -1.5934   -0.7106 H   0  0  0  0  0  0  0  0  0  0  0  0
   -5.0266    0.0711   -1.8584 H   0  0  0  0  0  0  0  0  0  0  0  0
   -4.5106   -2.1686   -2.8341 H   0  0  0  0  0  0  0  0  0  0  0  0
   -3.1630   -1.4605   -3.7429 H   0  0  0  0  0  0  0  0  0  0  0  0
   -4.8248   -0.9499   -4.0775 H   0  0  0  0  0  0  0  0  0  0  0  0
   -2.5157    1.0216   -3.3271 H   0  0  0  0  0  0  0  0  0  0  0  0
   -3.4565    1.9721   -2.1618 H   0  0  0  0  0  0  0  0  0  0  0  0
   -4.1863    1.4632   -3.6879 H   0  0  0  0  0  0  0  0  0  0  0  0
   -1.2564    0.1629   -1.5158 H   0  0  0  0  0  0  0  0  0  0  0  0
    0.6886   -0.9950   -2.0413 H   0  0  0  0  0  0  0  0  0  0  0  0
    2.2878   -1.0147    0.1281 H   0  0  0  0  0  0  0  0  0  0  0  0
    0.6417   -2.0235    1.6917 H   0  0  0  0  0  0  0  0  0  0  0  0
    1.1558   -0.4095    2.1862 H   0  0  0  0  0  0  0  0  0  0  0  0
   -0.4348   -0.6318    1.4584 H   0  0  0  0  0  0  0  0  0  0  0  0
    0.2321    1.1947   -0.2833 H   0  0  0  0  0  0  0  0  0  0  0  0
    1.6868    0.9574   -1.2653 H   0  0  0  0  0  0  0  0  0  0  0  0
    1.8286    1.3228    0.4568 H   0  0  0  0  0  0  0  0  0  0  0  0
    0.1280   -4.4523   -1.2283 H   0  0  0  0  0  0  0  0  0  0  0  0
    0.7856   -3.8795    0.3424 H   0  0  0  0  0  0  0  0  0  0  0  0
    1.7976   -4.8017   -0.7753 H   0  0  0  0  0  0  0  0  0  0  0  0
    4.2639   -2.2887   -3.9275 H   0  0  0  0  0  0  0  0  0  0  0  0
    4.0462   -0.5451   -3.9054 H   0  0  0  0  0  0  0  0  0  0  0  0
    6.5885   -2.6244   -3.3694 H   0  0  0  0  0  0  0  0  0  0  0  0
    8.4679   -2.3663   -1.8287 H   0  0  0  0  0  0  0  0  0  0  0  0
    6.1734    0.4788    0.4758 H   0  0  0  0  0  0  0  0  0  0  0  0
    4.3158    0.2190   -1.0696 H   0  0  0  0  0  0  0  0  0  0  0  0
    9.3061   -1.5824    0.1788 H   0  0  0  0  0  0  0  0  0  0  0  0
    9.6947   -0.2041    3.4221 H   0  0  0  0  0  0  0  0  0  0  0  0
    9.7447   -2.5200    4.0085 H   0  0  0  0  0  0  0  0  0  0  0  0
    8.1381   -2.1025    3.4977 H   0  0  0  0  0  0  0  0  0  0  0  0
    8.6329   -4.2911    2.7706 H   0  0  0  0  0  0  0  0  0  0  0  0
    8.4438   -3.3102    1.3497 H   0  0  0  0  0  0  0  0  0  0  0  0
   10.9473   -3.2607    1.0608 H   0  0  0  0  0  0  0  0  0  0  0  0
   11.1270   -4.1780    2.5727 H   0  0  0  0  0  0  0  0  0  0  0  0
    9.8205   -5.1298    0.0546 H   0  0  0  0  0  0  0  0  0  0  0  0
   11.5136   -8.0303    0.2954 H   0  0  0  0  0  0  0  0  0  0  0  0
    9.9801   -7.3994   -0.0748 H   0  0  0  0  0  0  0  0  0  0  0  0
   11.1694   -0.0165    1.4156 H   0  0  0  0  0  0  0  0  0  0  0  0
   13.6171    0.2598    2.8399 H   0  0  0  0  0  0  0  0  0  0  0  0
   14.5978   -1.8973    3.5258 H   0  0  0  0  0  0  0  0  0  0  0  0
   16.1209   -0.7949    1.1141 H   0  0  0  0  0  0  0  0  0  0  0  0
   16.7788   -1.6805    2.4905 H   0  0  0  0  0  0  0  0  0  0  0  0
   16.1069   -0.0642    2.7330 H   0  0  0  0  0  0  0  0  0  0  0  0
   13.5116   -3.4231    1.8939 H   0  0  0  0  0  0  0  0  0  0  0  0
   15.2647   -3.6200    1.9091 H   0  0  0  0  0  0  0  0  0  0  0  0
   14.4919   -2.7415    0.5830 H   0  0  0  0  0  0  0  0  0  0  0  0
   13.1285   -0.8946    0.1309 H   0  0  0  0  0  0  0  0  0  0  0  0
   13.3001    1.8773   -1.3958 H   0  0  0  0  0  0  0  0  0  0  0  0
   13.7812    0.1896   -1.5911 H   0  0  0  0  0  0  0  0  0  0  0  0
   15.5536    1.2601   -2.6425 H   0  0  0  0  0  0  0  0  0  0  0  0
   16.2085    0.9629   -1.0325 H   0  0  0  0  0  0  0  0  0  0  0  0
   15.0542    3.5816   -2.1199 H   0  0  0  0  0  0  0  0  0  0  0  0
   15.5179    3.3766   -0.4323 H   0  0  0  0  0  0  0  0  0  0  0  0
   17.8424    2.7590   -1.1530 H   0  0  0  0  0  0  0  0  0  0  0  0
   17.3966    3.0723   -2.8295 H   0  0  0  0  0  0  0  0  0  0  0  0
   17.2387    5.1510   -0.5657 H   0  0  0  0  0  0  0  0  0  0  0  0
   18.6249    4.9545   -1.6547 H   0  0  0  0  0  0  0  0  0  0  0  0
   14.6436    7.7717   -3.7325 H   0  0  0  0  0  0  0  0  0  0  0  0
   16.6489    7.2671   -5.4386 H   0  0  0  0  0  0  0  0  0  0  0  0
  1  2  1  0
  2  3  1  0
  3  4  1  0
  3  5  1  0
  5  6  1  0
  6  7  1  0
  7  8  1  0
  8  9  2  0
  8 10  1  0
 10 11  1  0
 11 12  1  0
 12 13  1  0
 13 14  1  0
 14 15  1  0
 15 16  1  0
 16 17  1  0
 16 18  1  0
 18 19  2  0
 18 20  1  0
 20 21  1  0
 21 22  1  0
 21 23  1  0
 23 24  1  0
 24 25  2  0
 25 26  1  0
 26 27  2  0
 27 28  1  0
 28 29  2  0
 23 30  1  0
 15 31  1  0
 31 32  1  0
  6 33  1  0
 33 34  1  0
  5 35  1  0
 35 36  1  0
 35 37  1  0
 37 38  2  0
 37 39  1  0
 39 40  1  0
 40 41  1  0
 40 42  1  0
 39 43  1  0
 43 44  1  0
 44 45  2  0
 44 46  1  0
 46 47  1  0
 47 48  1  0
 47 49  1  0
 46 50  1  0
 50 51  1  0
 50 52  1  0
 52 53  2  0
 52 54  1  0
 54 55  1  0
 55 56  1  0
 56 57  1  0
 57 58  2  0
 58 59  1  0
 59 60  2  0
 60 61  1  0
 59 62  1  0
 62 63  1  0
 63 64  2  0
 63 65  1  0
 65 66  1  0
 66 67  1  0
 67 68  1  0
 68 69  1  0
 69 70  1  0
 70 71  2  0
 70 72  1  0
 65 73  1  0
 73 74  1  0
 74 75  2  0
 74 76  1  0
 76 77  1  0
 77 78  1  0
 77 79  1  0
 76 80  1  0
 80 81  1  0
 81 82  2  0
 81 83  1  0
 83 84  1  0
 84 85  1  0
 85 86  1  0
 86 87  1  0
 87 88  1  0
 88 89  1  0
 89 90  2  0
 89 91  1  0
 91 92  2  0
 92 93  1  0
 93 94  2  0
 14 10  1  0
 29 24  1  0
 61 56  2  0
 93 88  1  0
  1 95  1  0
  1 96  1  0
  1 97  1  0
  2 98  1  0
  2 99  1  0
  3100  1  6
  4101  1  0
  4102  1  0
  4103  1  0
  5104  1  6
  6105  1  6
  7106  1  0
  7107  1  0
 11108  1  0
 11109  1  0
 12110  1  0
 12111  1  0
 13112  1  0
 13113  1  0
 14114  1  6
 15115  1  6
 16116  1  1
 17117  1  0
 17118  1  0
 17119  1  0
 20120  1  0
 21121  1  6
 22122  1  0
 22123  1  0
 22124  1  0
 23125  1  1
 25126  1  0
 26127  1  0
 27128  1  0
 28129  1  0
 29130  1  0
 30131  1  0
 32132  1  0
 32133  1  0
 32134  1  0
 34135  1  0
 34136  1  0
 34137  1  0
 36138  1  0
 36139  1  0
 36140  1  0
 39141  1  1
 40142  1  0
 41143  1  0
 41144  1  0
 41145  1  0
 42146  1  0
 42147  1  0
 42148  1  0
 43149  1  0
 46150  1  6
 47151  1  0
 48152  1  0
 48153  1  0
 48154  1  0
 49155  1  0
 49156  1  0
 49157  1  0
 51158  1  0
 51159  1  0
 51160  1  0
 55161  1  0
 55162  1  0
 57163  1  0
 58164  1  0
 60165  1  0
 61166  1  0
 62167  1  0
 65168  1  1
 66169  1  0
 66170  1  0
 67171  1  0
 67172  1  0
 68173  1  0
 68174  1  0
 69175  1  0
 72176  1  0
 72177  1  0
 73178  1  0
 76179  1  1
 77180  1  0
 78181  1  0
 78182  1  0
 78183  1  0
 79184  1  0
 79185  1  0
 79186  1  0
 80187  1  0
 83188  1  0
 83189  1  0
 84190  1  0
 84191  1  0
 85192  1  0
 85193  1  0
 86194  1  0
 86195  1  0
 87196  1  0
 87197  1  0
 91198  1  0
 92199  1  0
M  END
$$$$

     RDKit          3D

199202  0  0  0  0  0  0  0  0999 V2000
   -5.7604   -4.6406    2.5402 C   0  0  0  0  0  0  0  0  0  0  0  0
   -4.9528   -3.6400    1.7148 C   0  0  0  0  0  0  0  0  0  0  0  0
   -5.3956   -3.6344    0.2337 C   0  0  2  0  0  0  0  0  0  0  0  0
   -4.3716   -4.4202   -0.6128 C   0  0  0  0  0  0  0  0  0  0  0  0
   -5.7299   -2.2667   -0.4485 C   0  0  1  0  0  0  0  0  0  0  0  0
   -6.8934   -1.4040    0.1732 C   0  0  1  0  0  0  0  0  0  0  0  0
   -8.2252   -1.5039   -0.5889 C   0  0  0  0  0  0  0  0  0  0  0  0
   -8.9084   -2.8392   -0.4185 C   0  0  0  0  0  0  0  0  0  0  0  0
   -8.4086   -3.8967   -0.7816 O   0  0  0  0  0  0  0  0  0  0  0  0
  -10.1925   -2.7666    0.1434 N   0  0  0  0  0  0  0  0  0  0  0  0
  -10.5745   -3.9195    0.9539 C   0  0  0  0  0  0  0  0  0  0  0  0
  -11.4646   -4.7460    0.0451 C   0  0  0  0  0  0  0  0  0  0  0  0
  -12.2656   -3.6754   -0.6729 C   0  0  0  0  0  0  0  0  0  0  0  0
  -11.2719   -2.5065   -0.8309 C   0  0  1  0  0  0  0  0  0  0  0  0
  -11.9698   -1.1179   -0.7113 C   0  0  1  0  0  0  0  0  0  0  0  0
  -12.4094   -0.7326    0.7233 C   0  0  1  0  0  0  0  0  0  0  0  0
  -11.3060   -0.1520    1.6125 C   0  0  0  0  0  0  0  0  0  0  0  0
  -13.5493    0.2796    0.7040 C   0  0  0  0  0  0  0  0  0  0  0  0
  -14.4656    0.2405    1.5183 O   0  0  0  0  0  0  0  0  0  0  0  0
  -13.4047    1.3121   -0.1933 N   0  0  0  0  0  0  0  0  0  0  0  0
  -14.2473    2.5252   -0.1470 C   0  0  2  0  0  0  0  0  0  0  0  0
  -14.2141    3.1669   -1.5319 C   0  0  0  0  0  0  0  0  0  0  0  0
  -13.7578    3.4614    1.0038 C   0  0  1  0  0  0  0  0  0  0  0  0
  -14.2059    4.8991    0.9031 C   0  0  0  0  0  0  0  0  0  0  0  0
  -15.5367    5.2677    1.1478 C   0  0  0  0  0  0  0  0  0  0  0  0
  -15.9340    6.6024    1.0293 C   0  0  0  0  0  0  0  0  0  0  0  0
  -15.0088    7.5797    0.6713 C   0  0  0  0  0  0  0  0  0  0  0  0
  -13.6832    7.2288    0.4273 C   0  0  0  0  0  0  0  0  0  0  0  0
  -13.2835    5.8945    0.5444 C   0  0  0  0  0  0  0  0  0  0  0  0
  -14.1782    2.9686    2.2850 O   0  0  0  0  0  0  0  0  0  0  0  0
  -11.1279   -0.0597   -1.2282 O   0  0  0  0  0  0  0  0  0  0  0  0
  -11.0755    0.0018   -2.6503 C   0  0  0  0  0  0  0  0  0  0  0  0
   -7.0980   -1.6815    1.5601 O   0  0  0  0  0  0  0  0  0  0  0  0
   -7.4248   -0.5307    2.3240 C   0  0  0  0  0  0  0  0  0  0  0  0
   -4.5352   -1.3937   -0.7616 N   0  0  0  0  0  0  0  0  0  0  0  0
   -3.6994   -0.9711    0.3497 C   0  0  0  0  0  0  0  0  0  0  0  0
   -4.6342   -0.6267   -1.9305 C   0  0  0  0  0  0  0  0  0  0  0  0
   -5.5999   -0.7613   -2.6980 O   0  0  0  0  0  0  0  0  0  0  0  0
   -3.5270    0.3864   -2.3606 C   0  0  1  0  0  0  0  0  0  0  0  0
   -3.3755    1.6660   -1.5070 C   0  0  0  0  0  0  0  0  0  0  0  0
   -4.7414    2.2661   -1.1443 C   0  0  0  0  0  0  0  0  0  0  0  0
   -2.5603    2.7321   -2.2518 C   0  0  0  0  0  0  0  0  0  0  0  0
   -2.3211   -0.3480   -2.7778 N   0  0  0  0  0  0  0  0  0  0  0  0
   -1.1237   -0.4324   -2.0989 C   0  0  0  0  0  0  0  0  0  0  0  0
   -0.8827    0.2224   -1.0878 O   0  0  0  0  0  0  0  0  0  0  0  0
   -0.0863   -1.4052   -2.7380 C   0  0  1  0  0  0  0  0  0  0  0  0
    0.8706   -0.6978   -3.7346 C   0  0  0  0  0  0  0  0  0  0  0  0
    1.9381   -1.6676   -4.2566 C   0  0  0  0  0  0  0  0  0  0  0  0
    0.1004   -0.1201   -4.9336 C   0  0  0  0  0  0  0  0  0  0  0  0
    0.5477   -2.1966   -1.6574 N   0  0  0  0  0  0  0  0  0  0  0  0
   -0.0219   -3.5043   -1.3943 C   0  0  0  0  0  0  0  0  0  0  0  0
    1.3414   -1.6252   -0.6646 C   0  0  0  0  0  0  0  0  0  0  0  0
    1.5516   -2.1604    0.4208 O   0  0  0  0  0  0  0  0  0  0  0  0
    1.8473   -0.4135   -1.0086 O   0  0  0  0  0  0  0  0  0  0  0  0
    2.0554    0.4690    0.0937 C   0  0  0  0  0  0  0  0  0  0  0  0
    3.4364    0.3876    0.6860 C   0  0  0  0  0  0  0  0  0  0  0  0
    4.5674    0.8332   -0.0095 C   0  0  0  0  0  0  0  0  0  0  0  0
    5.8223    0.8577    0.6104 C   0  0  0  0  0  0  0  0  0  0  0  0
    5.9714    0.4448    1.9405 C   0  0  0  0  0  0  0  0  0  0  0  0
    4.8546   -0.0530    2.6136 C   0  0  0  0  0  0  0  0  0  0  0  0
    3.5993   -0.0775    1.9957 C   0  0  0  0  0  0  0  0  0  0  0  0
    7.2497    0.5670    2.5306 N   0  0  0  0  0  0  0  0  0  0  0  0
    7.5579    0.3892    3.8721 C   0  0  0  0  0  0  0  0  0  0  0  0
    6.7540    0.1184    4.7640 O   0  0  0  0  0  0  0  0  0  0  0  0
    9.0447    0.6062    4.2136 C   0  0  1  0  0  0  0  0  0  0  0  0
    9.5521   -0.5184    5.1406 C   0  0  0  0  0  0  0  0  0  0  0  0
    9.2920   -1.9654    4.6973 C   0  0  0  0  0  0  0  0  0  0  0  0
    9.9155   -2.3674    3.3660 C   0  0  0  0  0  0  0  0  0  0  0  0
    9.1204   -1.9377    2.2245 N   0  0  0  0  0  0  0  0  0  0  0  0
    9.6916   -1.8161    0.9948 C   0  0  0  0  0  0  0  0  0  0  0  0
   10.8992   -1.7425    0.8164 O   0  0  0  0  0  0  0  0  0  0  0  0
    8.8028   -1.6556   -0.0064 N   0  0  0  0  0  0  0  0  0  0  0  0
    9.9621    0.8365    3.0887 N   0  0  0  0  0  0  0  0  0  0  0  0
   10.8414    1.8983    3.0928 C   0  0  0  0  0  0  0  0  0  0  0  0
   10.7680    2.7992    3.9386 O   0  0  0  0  0  0  0  0  0  0  0  0
   12.0108    1.8634    2.0787 C   0  0  1  0  0  0  0  0  0  0  0  0
   13.3663    1.4650    2.7302 C   0  0  0  0  0  0  0  0  0  0  0  0
   13.8937    2.5452    3.6757 C   0  0  0  0  0  0  0  0  0  0  0  0
   13.3204    0.1111    3.4371 C   0  0  0  0  0  0  0  0  0  0  0  0
   11.7744    1.0573    0.8677 N   0  0  0  0  0  0  0  0  0  0  0  0
   12.3873    1.4494   -0.3105 C   0  0  0  0  0  0  0  0  0  0  0  0
   12.9857    2.5183   -0.4355 O   0  0  0  0  0  0  0  0  0  0  0  0
   12.3266    0.4282   -1.4259 C   0  0  0  0  0  0  0  0  0  0  0  0
   13.4296   -0.6180   -1.2961 C   0  0  0  0  0  0  0  0  0  0  0  0
   14.8602   -0.0737   -1.2571 C   0  0  0  0  0  0  0  0  0  0  0  0
   15.2624    0.7312   -2.4940 C   0  0  0  0  0  0  0  0  0  0  0  0
   16.7155    1.2051   -2.3803 C   0  0  0  0  0  0  0  0  0  0  0  0
   17.1307    1.9588   -3.5462 N   0  0  0  0  0  0  0  0  0  0  0  0
   17.0803    3.3105   -3.6544 C   0  0  0  0  0  0  0  0  0  0  0  0
   16.6890    4.1358   -2.8487 O   0  0  0  0  0  0  0  0  0  0  0  0
   17.6111    3.6581   -4.9778 C   0  0  0  0  0  0  0  0  0  0  0  0
   17.9538    2.5215   -5.5863 C   0  0  0  0  0  0  0  0  0  0  0  0
   17.6535    1.4143   -4.6737 C   0  0  0  0  0  0  0  0  0  0  0  0
   17.8691    0.2449   -4.9408 O   0  0  0  0  0  0  0  0  0  0  0  0
   -5.6420   -5.6564    2.1464 H   0  0  0  0  0  0  0  0  0  0  0  0
   -6.8228   -4.3834    2.5388 H   0  0  0  0  0  0  0  0  0  0  0  0
   -5.4047   -4.6418    3.5768 H   0  0  0  0  0  0  0  0  0  0  0  0
   -5.0520   -2.6584    2.1839 H   0  0  0  0  0  0  0  0  0  0  0  0
   -3.8924   -3.9248    1.8054 H   0  0  0  0  0  0  0  0  0  0  0  0
   -6.3158   -4.2259    0.1840 H   0  0  0  0  0  0  0  0  0  0  0  0
   -3.3870   -3.9451   -0.5953 H   0  0  0  0  0  0  0  0  0  0  0  0
   -4.2600   -5.4458   -0.2354 H   0  0  0  0  0  0  0  0  0  0  0  0
   -4.6969   -4.4833   -1.6593 H   0  0  0  0  0  0  0  0  0  0  0  0
   -6.0916   -2.5701   -1.4407 H   0  0  0  0  0  0  0  0  0  0  0  0
   -6.5863   -0.3537    0.0777 H   0  0  0  0  0  0  0  0  0  0  0  0
   -8.0866   -1.3277   -1.6610 H   0  0  0  0  0  0  0  0  0  0  0  0
   -8.8891   -0.7152   -0.2225 H   0  0  0  0  0  0  0  0  0  0  0  0
   -9.7073   -4.4757    1.3167 H   0  0  0  0  0  0  0  0  0  0  0  0
  -11.1485   -3.5340    1.8016 H   0  0  0  0  0  0  0  0  0  0  0  0
  -12.0932   -5.4537    0.5957 H   0  0  0  0  0  0  0  0  0  0  0  0
  -10.8577   -5.3096   -0.6712 H   0  0  0  0  0  0  0  0  0  0  0  0
  -12.6182   -4.0305   -1.6474 H   0  0  0  0  0  0  0  0  0  0  0  0
  -13.1517   -3.4021   -0.0938 H   0  0  0  0  0  0  0  0  0  0  0  0
  -10.8309   -2.6015   -1.8308 H   0  0  0  0  0  0  0  0  0  0  0  0
  -12.8692   -1.1576   -1.3413 H   0  0  0  0  0  0  0  0  0  0  0  0
  -12.8189   -1.6200    1.2216 H   0  0  0  0  0  0  0  0  0  0  0  0
  -10.8474    0.7431    1.1691 H   0  0  0  0  0  0  0  0  0  0  0  0
  -10.5152   -0.8811    1.8083 H   0  0  0  0  0  0  0  0  0  0  0  0
  -11.7128    0.1502    2.5848 H   0  0  0  0  0  0  0  0  0  0  0  0
  -12.4943    1.3931   -0.6422 H   0  0  0  0  0  0  0  0  0  0  0  0
  -15.2697    2.1944    0.0666 H   0  0  0  0  0  0  0  0  0  0  0  0
  -14.5127    2.4384   -2.2999 H   0  0  0  0  0  0  0  0  0  0  0  0
  -13.2077    3.5219   -1.7893 H   0  0  0  0  0  0  0  0  0  0  0  0
  -14.9089    4.0108   -1.6035 H   0  0  0  0  0  0  0  0  0  0  0  0
  -12.6577    3.4333    1.0269 H   0  0  0  0  0  0  0  0  0  0  0  0
  -16.2648    4.5148    1.4411 H   0  0  0  0  0  0  0  0  0  0  0  0
  -16.9661    6.8769    1.2318 H   0  0  0  0  0  0  0  0  0  0  0  0
  -15.3196    8.6174    0.5899 H   0  0  0  0  0  0  0  0  0  0  0  0
  -12.9540    7.9893    0.1593 H   0  0  0  0  0  0  0  0  0  0  0  0
  -12.2404    5.6419    0.3614 H   0  0  0  0  0  0  0  0  0  0  0  0
  -14.3743    2.0124    2.1998 H   0  0  0  0  0  0  0  0  0  0  0  0
  -10.4201    0.8322   -2.9299 H   0  0  0  0  0  0  0  0  0  0  0  0
  -10.6642   -0.9147   -3.0831 H   0  0  0  0  0  0  0  0  0  0  0  0
  -12.0722    0.1989   -3.0566 H   0  0  0  0  0  0  0  0  0  0  0  0
   -8.2805   -0.0035    1.8969 H   0  0  0  0  0  0  0  0  0  0  0  0
   -6.5604    0.1424    2.3708 H   0  0  0  0  0  0  0  0  0  0  0  0
   -7.6759   -0.8559    3.3383 H   0  0  0  0  0  0  0  0  0  0  0  0
   -4.2057   -0.1683    0.8974 H   0  0  0  0  0  0  0  0  0  0  0  0
   -3.4800   -1.7996    1.0189 H   0  0  0  0  0  0  0  0  0  0  0  0
   -2.7368   -0.6183   -0.0016 H   0  0  0  0  0  0  0  0  0  0  0  0
   -3.9088    0.7419   -3.3286 H   0  0  0  0  0  0  0  0  0  0  0  0
   -2.8611    1.4495   -0.5616 H   0  0  0  0  0  0  0  0  0  0  0  0
   -5.3599    2.4143   -2.0343 H   0  0  0  0  0  0  0  0  0  0  0  0
   -4.6184    3.2333   -0.6469 H   0  0  0  0  0  0  0  0  0  0  0  0
   -5.2854    1.6185   -0.4532 H   0  0  0  0  0  0  0  0  0  0  0  0
   -3.0977    3.0858   -3.1371 H   0  0  0  0  0  0  0  0  0  0  0  0
   -2.3770    3.5929   -1.6037 H   0  0  0  0  0  0  0  0  0  0  0  0
   -1.5848    2.3560   -2.5724 H   0  0  0  0  0  0  0  0  0  0  0  0
   -2.4807   -1.0052   -3.5327 H   0  0  0  0  0  0  0  0  0  0  0  0
   -0.6556   -2.1368   -3.3295 H   0  0  0  0  0  0  0  0  0  0  0  0
    1.3748    0.1462   -3.2515 H   0  0  0  0  0  0  0  0  0  0  0  0
    1.4752   -2.5361   -4.7435 H   0  0  0  0  0  0  0  0  0  0  0  0
    2.5762   -2.0280   -3.4485 H   0  0  0  0  0  0  0  0  0  0  0  0
    2.5809   -1.1749   -4.9933 H   0  0  0  0  0  0  0  0  0  0  0  0
   -0.5891    0.6660   -4.6240 H   0  0  0  0  0  0  0  0  0  0  0  0
    0.7884    0.3261   -5.6600 H   0  0  0  0  0  0  0  0  0  0  0  0
   -0.4719   -0.8996   -5.4484 H   0  0  0  0  0  0  0  0  0  0  0  0
    0.1134   -4.1251   -2.2845 H   0  0  0  0  0  0  0  0  0  0  0  0
   -1.0876   -3.3946   -1.1865 H   0  0  0  0  0  0  0  0  0  0  0  0
    0.4542   -4.0010   -0.5448 H   0  0  0  0  0  0  0  0  0  0  0  0
    1.8901    1.4917   -0.2731 H   0  0  0  0  0  0  0  0  0  0  0  0
    1.2853    0.3157    0.8628 H   0  0  0  0  0  0  0  0  0  0  0  0
    4.4738    1.1848   -1.0342 H   0  0  0  0  0  0  0  0  0  0  0  0
    6.6726    1.2372    0.0498 H   0  0  0  0  0  0  0  0  0  0  0  0
    4.9164   -0.4287    3.6321 H   0  0  0  0  0  0  0  0  0  0  0  0
    2.7450   -0.4462    2.5560 H   0  0  0  0  0  0  0  0  0  0  0  0
    7.9990    0.9463    1.9608 H   0  0  0  0  0  0  0  0  0  0  0  0
    9.0409    1.5268    4.8142 H   0  0  0  0  0  0  0  0  0  0  0  0
    9.0611   -0.3984    6.1159 H   0  0  0  0  0  0  0  0  0  0  0  0
   10.6239   -0.3850    5.3352 H   0  0  0  0  0  0  0  0  0  0  0  0
    8.2158   -2.1731    4.6863 H   0  0  0  0  0  0  0  0  0  0  0  0
    9.7131   -2.6141    5.4759 H   0  0  0  0  0  0  0  0  0  0  0  0
   10.9399   -1.9952    3.2839 H   0  0  0  0  0  0  0  0  0  0  0  0
    9.9621   -3.4610    3.3077 H   0  0  0  0  0  0  0  0  0  0  0  0
    8.1506   -2.2291    2.2306 H   0  0  0  0  0  0  0  0  0  0  0  0
    7.8644   -2.0262    0.0828 H   0  0  0  0  0  0  0  0  0  0  0  0
    9.2006   -1.7382   -0.9360 H   0  0  0  0  0  0  0  0  0  0  0  0
   10.1477    0.0645    2.4593 H   0  0  0  0  0  0  0  0  0  0  0  0
   12.1019    2.9095    1.7377 H   0  0  0  0  0  0  0  0  0  0  0  0
   14.1133    1.3720    1.9315 H   0  0  0  0  0  0  0  0  0  0  0  0
   14.8933    2.2745    4.0427 H   0  0  0  0  0  0  0  0  0  0  0  0
   13.2556    2.6727    4.5520 H   0  0  0  0  0  0  0  0  0  0  0  0
   13.9796    3.5057    3.1601 H   0  0  0  0  0  0  0  0  0  0  0  0
   13.1046   -0.6960    2.7284 H   0  0  0  0  0  0  0  0  0  0  0  0
   12.5589    0.0864    4.2162 H   0  0  0  0  0  0  0  0  0  0  0  0
   14.2822   -0.1234    3.9106 H   0  0  0  0  0  0  0  0  0  0  0  0
   11.5902    0.0566    0.9673 H   0  0  0  0  0  0  0  0  0  0  0  0
   12.3781    0.9575   -2.3874 H   0  0  0  0  0  0  0  0  0  0  0  0
   11.3487   -0.0647   -1.4051 H   0  0  0  0  0  0  0  0  0  0  0  0
   13.3371   -1.3258   -2.1276 H   0  0  0  0  0  0  0  0  0  0  0  0
   13.2691   -1.1960   -0.3791 H   0  0  0  0  0  0  0  0  0  0  0  0
   14.9949    0.5427   -0.3617 H   0  0  0  0  0  0  0  0  0  0  0  0
   15.5491   -0.9194   -1.1474 H   0  0  0  0  0  0  0  0  0  0  0  0
   15.1417    0.1125   -3.3964 H   0  0  0  0  0  0  0  0  0  0  0  0
   14.6111    1.6011   -2.6209 H   0  0  0  0  0  0  0  0  0  0  0  0
   16.8318    1.8414   -1.4964 H   0  0  0  0  0  0  0  0  0  0  0  0
   17.3836    0.3418   -2.2780 H   0  0  0  0  0  0  0  0  0  0  0  0
   17.6961    4.6660   -5.3370 H   0  0  0  0  0  0  0  0  0  0  0  0
   18.3844    2.3867   -6.5649 H   0  0  0  0  0  0  0  0  0  0  0  0
  1  2  1  0
  2  3  1  0
  3  4  1  0
  3  5  1  0
  5  6  1  0
  6  7  1  0
  7  8  1  0
  8  9  2  0
  8 10  1  0
 10 11  1  0
 11 12  1  0
 12 13  1  0
 13 14  1  0
 14 15  1  0
 15 16  1  0
 16 17  1  0
 16 18  1  0
 18 19  2  0
 18 20  1  0
 20 21  1  0
 21 22  1  0
 21 23  1  0
 23 24  1  0
 24 25  2  0
 25 26  1  0
 26 27  2  0
 27 28  1  0
 28 29  2  0
 23 30  1  0
 15 31  1  0
 31 32  1  0
  6 33  1  0
 33 34  1  0
  5 35  1  0
 35 36  1  0
 35 37  1  0
 37 38  2  0
 37 39  1  0
 39 40  1  0
 40 41  1  0
 40 42  1  0
 39 43  1  0
 43 44  1  0
 44 45  2  0
 44 46  1  0
 46 47  1  0
 47 48  1  0
 47 49  1  0
 46 50  1  0
 50 51  1  0
 50 52  1  0
 52 53  2  0
 52 54  1  0
 54 55  1  0
 55 56  1  0
 56 57  1  0
 57 58  2  0
 58 59  1  0
 59 60  2  0
 60 61  1  0
 59 62  1  0
 62 63  1  0
 63 64  2  0
 63 65  1  0
 65 66  1  0
 66 67  1  0
 67 68  1  0
 68 69  1  0
 69 70  1  0
 70 71  2  0
 70 72  1  0
 65 73  1  0
 73 74  1  0
 74 75  2  0
 74 76  1  0
 76 77  1  0
 77 78  1  0
 77 79  1  0
 76 80  1  0
 80 81  1  0
 81 82  2  0
 81 83  1  0
 83 84  1  0
 84 85  1  0
 85 86  1  0
 86 87  1  0
 87 88  1  0
 88 89  1  0
 89 90  2  0
 89 91  1  0
 91 92  2  0
 92 93  1  0
 93 94  2  0
 14 10  1  0
 29 24  1  0
 61 56  2  0
 93 88  1  0
  1 95  1  0
  1 96  1  0
  1 97  1  0
  2 98  1  0
  2 99  1  0
  3100  1  1
  4101  1  0
  4102  1  0
  4103  1  0
  5104  1  6
  6105  1  1
  7106  1  0
  7107  1  0
 11108  1  0
 11109  1  0
 12110  1  0
 12111  1  0
 13112  1  0
 13113  1  0
 14114  1  6
 15115  1  6
 16116  1  1
 17117  1  0
 17118  1  0
 17119  1  0
 20120  1  0
 21121  1  1
 22122  1  0
 22123  1  0
 22124  1  0
 23125  1  1
 25126  1  0
 26127  1  0
 27128  1  0
 28129  1  0
 29130  1  0
 30131  1  0
 32132  1  0
 32133  1  0
 32134  1  0
 34135  1  0
 34136  1  0
 34137  1  0
 36138  1  0
 36139  1  0
 36140  1  0
 39141  1  6
 40142  1  0
 41143  1  0
 41144  1  0
 41145  1  0
 42146  1  0
 42147  1  0
 42148  1  0
 43149  1  0
 46150  1  6
 47151  1  0
 48152  1  0
 48153  1  0
 48154  1  0
 49155  1  0
 49156  1  0
 49157  1  0
 51158  1  0
 51159  1  0
 51160  1  0
 55161  1  0
 55162  1  0
 57163  1  0
 58164  1  0
 60165  1  0
 61166  1  0
 62167  1  0
 65168  1  1
 66169  1  0
 66170  1  0
 67171  1  0
 67172  1  0
 68173  1  0
 68174  1  0
 69175  1  0
 72176  1  0
 72177  1  0
 73178  1  0
 76179  1  6
 77180  1  0
 78181  1  0
 78182  1  0
 78183  1  0
 79184  1  0
 79185  1  0
 79186  1  0
 80187  1  0
 83188  1  0
 83189  1  0
 84190  1  0
 84191  1  0
 85192  1  0
 85193  1  0
 86194  1  0
 86195  1  0
 87196  1  0
 87197  1  0
 91198  1  0
 92199  1  0
M  END
$$$$

     RDKit          3D

199202  0  0  0  0  0  0  0  0999 V2000
   -7.4223   -0.6987   -2.6660 C   0  0  0  0  0  0  0  0  0  0  0  0
   -8.0917   -1.3546   -1.4664 C   0  0  0  0  0  0  0  0  0  0  0  0
   -7.1383   -1.6913   -0.2994 C   0  0  2  0  0  0  0  0  0  0  0  0
   -7.8621   -2.5535    0.7409 C   0  0  0  0  0  0  0  0  0  0  0  0
   -6.3452   -0.4713    0.2818 C   0  0  1  0  0  0  0  0  0  0  0  0
   -7.0892    0.8879    0.6087 C   0  0  1  0  0  0  0  0  0  0  0  0
   -7.9507    1.0304    1.8741 C   0  0  0  0  0  0  0  0  0  0  0  0
   -9.3266    0.4143    1.7918 C   0  0  0  0  0  0  0  0  0  0  0  0
   -9.8832    0.2508    0.7100 O   0  0  0  0  0  0  0  0  0  0  0  0
   -9.9613    0.1108    2.9819 N   0  0  0  0  0  0  0  0  0  0  0  0
   -9.3065    0.0421    4.2850 C   0  0  0  0  0  0  0  0  0  0  0  0
  -10.3202   -0.6174    5.2056 C   0  0  0  0  0  0  0  0  0  0  0  0
  -11.0877   -1.5101    4.2407 C   0  0  0  0  0  0  0  0  0  0  0  0
  -11.2482   -0.6155    2.9893 C   0  0  1  0  0  0  0  0  0  0  0  0
  -12.4930    0.3250    3.1086 C   0  0  1  0  0  0  0  0  0  0  0  0
  -12.9725    1.0811    1.8435 C   0  0  1  0  0  0  0  0  0  0  0  0
  -12.0994    2.2893    1.4915 C   0  0  0  0  0  0  0  0  0  0  0  0
  -13.2381    0.1841    0.6331 C   0  0  0  0  0  0  0  0  0  0  0  0
  -13.1170   -1.0374    0.6209 O   0  0  0  0  0  0  0  0  0  0  0  0
  -13.7469    0.8547   -0.4626 N   0  0  0  0  0  0  0  0  0  0  0  0
  -14.1690    0.1635   -1.6928 C   0  0  2  0  0  0  0  0  0  0  0  0
  -14.2085    1.1998   -2.8207 C   0  0  0  0  0  0  0  0  0  0  0  0
  -15.5365   -0.5755   -1.4980 C   0  0  1  0  0  0  0  0  0  0  0  0
  -16.1675   -1.0762   -2.7805 C   0  0  0  0  0  0  0  0  0  0  0  0
  -17.3670   -0.5152   -3.2450 C   0  0  0  0  0  0  0  0  0  0  0  0
  -17.9400   -0.9556   -4.4406 C   0  0  0  0  0  0  0  0  0  0  0  0
  -17.3217   -1.9591   -5.1838 C   0  0  0  0  0  0  0  0  0  0  0  0
  -16.1338   -2.5275   -4.7330 C   0  0  0  0  0  0  0  0  0  0  0  0
  -15.5603   -2.0915   -3.5374 C   0  0  0  0  0  0  0  0  0  0  0  0
  -15.4201   -1.7122   -0.6348 O   0  0  0  0  0  0  0  0  0  0  0  0
  -13.6066   -0.4511    3.6071 O   0  0  0  0  0  0  0  0  0  0  0  0
  -14.3936    0.2312    4.5746 C   0  0  0  0  0  0  0  0  0  0  0  0
   -6.1041    1.9511    0.7499 O   0  0  0  0  0  0  0  0  0  0  0  0
   -5.6510    2.4828   -0.4916 C   0  0  0  0  0  0  0  0  0  0  0  0
   -5.2982   -0.9192    1.2606 N   0  0  0  0  0  0  0  0  0  0  0  0
   -5.6540   -1.0600    2.6606 C   0  0  0  0  0  0  0  0  0  0  0  0
   -3.9701   -1.0412    0.8254 C   0  0  0  0  0  0  0  0  0  0  0  0
   -3.6319   -0.7982   -0.3418 O   0  0  0  0  0  0  0  0  0  0  0  0
   -2.8845   -1.5037    1.8384 C   0  0  1  0  0  0  0  0  0  0  0  0
   -2.4909   -2.9980    1.6978 C   0  0  0  0  0  0  0  0  0  0  0  0
   -1.9130   -3.3548    0.3245 C   0  0  0  0  0  0  0  0  0  0  0  0
   -3.6385   -3.9484    2.0286 C   0  0  0  0  0  0  0  0  0  0  0  0
   -1.7160   -0.6462    1.6215 N   0  0  0  0  0  0  0  0  0  0  0  0
   -0.8158   -0.3269    2.6163 C   0  0  0  0  0  0  0  0  0  0  0  0
   -1.0342   -0.6216    3.7915 O   0  0  0  0  0  0  0  0  0  0  0  0
    0.3289    0.6177    2.1508 C   0  0  1  0  0  0  0  0  0  0  0  0
    1.5410    0.6704    3.1276 C   0  0  0  0  0  0  0  0  0  0  0  0
    2.7531    1.3954    2.5283 C   0  0  0  0  0  0  0  0  0  0  0  0
    1.1809    1.3823    4.4405 C   0  0  0  0  0  0  0  0  0  0  0  0
    0.6712    0.3086    0.7403 N   0  0  0  0  0  0  0  0  0  0  0  0
    0.5134    1.3832   -0.2328 C   0  0  0  0  0  0  0  0  0  0  0  0
    1.3818   -0.8489    0.4505 C   0  0  0  0  0  0  0  0  0  0  0  0
    1.6736   -1.6984    1.2795 O   0  0  0  0  0  0  0  0  0  0  0  0
    1.7490   -0.9096   -0.8565 O   0  0  0  0  0  0  0  0  0  0  0  0
    2.7536   -1.8788   -1.1965 C   0  0  0  0  0  0  0  0  0  0  0  0
    4.1018   -1.1961   -1.1945 C   0  0  0  0  0  0  0  0  0  0  0  0
    5.2062   -1.7648   -0.5520 C   0  0  0  0  0  0  0  0  0  0  0  0
    6.4298   -1.0824   -0.5020 C   0  0  0  0  0  0  0  0  0  0  0  0
    6.5613    0.1877   -1.0756 C   0  0  0  0  0  0  0  0  0  0  0  0
    5.4779    0.7201   -1.7769 C   0  0  0  0  0  0  0  0  0  0  0  0
    4.2637    0.0347   -1.8441 C   0  0  0  0  0  0  0  0  0  0  0  0
    7.7840    0.8776   -0.9116 N   0  0  0  0  0  0  0  0  0  0  0  0
    7.9211    2.2562   -1.0040 C   0  0  0  0  0  0  0  0  0  0  0  0
    6.9976    3.0648   -1.1467 O   0  0  0  0  0  0  0  0  0  0  0  0
    9.3472    2.8131   -0.7504 C   0  0  1  0  0  0  0  0  0  0  0  0
    9.5498    3.1617    0.7384 C   0  0  0  0  0  0  0  0  0  0  0  0
    9.5033    2.0102    1.7459 C   0  0  0  0  0  0  0  0  0  0  0  0
   10.8103    1.2307    1.8632 C   0  0  0  0  0  0  0  0  0  0  0  0
   10.6115   -0.0212    2.5668 N   0  0  0  0  0  0  0  0  0  0  0  0
   10.0561   -1.0809    1.9046 C   0  0  0  0  0  0  0  0  0  0  0  0
    9.6631   -1.0504    0.7469 O   0  0  0  0  0  0  0  0  0  0  0  0
    9.9789   -2.1848    2.6855 N   0  0  0  0  0  0  0  0  0  0  0  0
   10.4561    2.0519   -1.3267 N   0  0  0  0  0  0  0  0  0  0  0  0
   10.5269    2.0270   -2.7171 C   0  0  0  0  0  0  0  0  0  0  0  0
    9.5326    2.1415   -3.4337 O   0  0  0  0  0  0  0  0  0  0  0  0
   11.9428    1.8825   -3.3126 C   0  0  1  0  0  0  0  0  0  0  0  0
   12.8067    3.1294   -2.9473 C   0  0  0  0  0  0  0  0  0  0  0  0
   13.9263    2.8669   -1.9350 C   0  0  0  0  0  0  0  0  0  0  0  0
   13.3985    3.7788   -4.2013 C   0  0  0  0  0  0  0  0  0  0  0  0
   12.5080    0.5954   -2.9027 N   0  0  0  0  0  0  0  0  0  0  0  0
   13.4555   -0.0102   -3.7075 C   0  0  0  0  0  0  0  0  0  0  0  0
   13.9784    0.5547   -4.6614 O   0  0  0  0  0  0  0  0  0  0  0  0
   13.8013   -1.4228   -3.2746 C   0  0  0  0  0  0  0  0  0  0  0  0
   14.8200   -2.1109   -4.1817 C   0  0  0  0  0  0  0  0  0  0  0  0
   16.2318   -1.5036   -4.2374 C   0  0  0  0  0  0  0  0  0  0  0  0
   16.9866   -1.4722   -2.9066 C   0  0  0  0  0  0  0  0  0  0  0  0
   16.8219   -0.1524   -2.1499 C   0  0  0  0  0  0  0  0  0  0  0  0
   17.5552   -0.1722   -0.8998 N   0  0  0  0  0  0  0  0  0  0  0  0
   18.7175    0.4865   -0.6664 C   0  0  0  0  0  0  0  0  0  0  0  0
   19.3484    1.2233   -1.4026 O   0  0  0  0  0  0  0  0  0  0  0  0
   19.1219    0.1725    0.7082 C   0  0  0  0  0  0  0  0  0  0  0  0
   18.2110   -0.6577    1.2214 C   0  0  0  0  0  0  0  0  0  0  0  0
   17.1796   -0.8730    0.2023 C   0  0  0  0  0  0  0  0  0  0  0  0
   16.1864   -1.5577    0.3711 O   0  0  0  0  0  0  0  0  0  0  0  0
   -7.0061    0.2804   -2.4172 H   0  0  0  0  0  0  0  0  0  0  0  0
   -8.1616   -0.5421   -3.4547 H   0  0  0  0  0  0  0  0  0  0  0  0
   -6.6213   -1.3260   -3.0650 H   0  0  0  0  0  0  0  0  0  0  0  0
   -8.9086   -0.7187   -1.1315 H   0  0  0  0  0  0  0  0  0  0  0  0
   -8.5612   -2.2840   -1.8209 H   0  0  0  0  0  0  0  0  0  0  0  0
   -6.3767   -2.3600   -0.7274 H   0  0  0  0  0  0  0  0  0  0  0  0
   -7.1421   -3.0540    1.3966 H   0  0  0  0  0  0  0  0  0  0  0  0
   -8.5462   -1.9808    1.3627 H   0  0  0  0  0  0  0  0  0  0  0  0
   -8.4366   -3.3541    0.2558 H   0  0  0  0  0  0  0  0  0  0  0  0
   -5.7531   -0.1838   -0.5907 H   0  0  0  0  0  0  0  0  0  0  0  0
   -7.7205    1.1454   -0.2479 H   0  0  0  0  0  0  0  0  0  0  0  0
   -8.1431    2.1060    2.0272 H   0  0  0  0  0  0  0  0  0  0  0  0
   -7.4029    0.7427    2.7660 H   0  0  0  0  0  0  0  0  0  0  0  0
   -9.0075    1.0407    4.6167 H   0  0  0  0  0  0  0  0  0  0  0  0
   -8.4186   -0.5923    4.1978 H   0  0  0  0  0  0  0  0  0  0  0  0
  -10.9839    0.1364    5.6448 H   0  0  0  0  0  0  0  0  0  0  0  0
   -9.8469   -1.1731    6.0193 H   0  0  0  0  0  0  0  0  0  0  0  0
  -12.0210   -1.8858    4.6652 H   0  0  0  0  0  0  0  0  0  0  0  0
  -10.4685   -2.3818    3.9849 H   0  0  0  0  0  0  0  0  0  0  0  0
  -11.3189   -1.2642    2.1126 H   0  0  0  0  0  0  0  0  0  0  0  0
  -12.2520    1.0839    3.8672 H   0  0  0  0  0  0  0  0  0  0  0  0
  -13.9650    1.4912    2.0905 H   0  0  0  0  0  0  0  0  0  0  0  0
  -12.7274    3.1059    1.1151 H   0  0  0  0  0  0  0  0  0  0  0  0
  -11.5665    2.6838    2.3623 H   0  0  0  0  0  0  0  0  0  0  0  0
  -11.3787    2.0790    0.6991 H   0  0  0  0  0  0  0  0  0  0  0  0
  -14.0725    1.8045   -0.3228 H   0  0  0  0  0  0  0  0  0  0  0  0
  -13.3919   -0.5780   -1.9183 H   0  0  0  0  0  0  0  0  0  0  0  0
  -13.2617    1.7506   -2.8704 H   0  0  0  0  0  0  0  0  0  0  0  0
  -14.3640    0.7317   -3.7979 H   0  0  0  0  0  0  0  0  0  0  0  0
  -15.0083    1.9304   -2.6532 H   0  0  0  0  0  0  0  0  0  0  0  0
  -16.2288    0.1116   -0.9954 H   0  0  0  0  0  0  0  0  0  0  0  0
  -17.8691    0.2601   -2.6726 H   0  0  0  0  0  0  0  0  0  0  0  0
  -18.8722   -0.5193   -4.7843 H   0  0  0  0  0  0  0  0  0  0  0  0
  -17.7709   -2.3001   -6.1120 H   0  0  0  0  0  0  0  0  0  0  0  0
  -15.6556   -3.3164   -5.3061 H   0  0  0  0  0  0  0  0  0  0  0  0
  -14.6433   -2.5584   -3.1846 H   0  0  0  0  0  0  0  0  0  0  0  0
  -14.5672   -1.6435   -0.1509 H   0  0  0  0  0  0  0  0  0  0  0  0
  -13.7879    0.4793    5.4526 H   0  0  0  0  0  0  0  0  0  0  0  0
  -14.8353    1.1391    4.1523 H   0  0  0  0  0  0  0  0  0  0  0  0
  -15.2024   -0.4356    4.8888 H   0  0  0  0  0  0  0  0  0  0  0  0
   -5.0755    3.3905   -0.2828 H   0  0  0  0  0  0  0  0  0  0  0  0
   -6.4921    2.7539   -1.1361 H   0  0  0  0  0  0  0  0  0  0  0  0
   -4.9923    1.7759   -1.0026 H   0  0  0  0  0  0  0  0  0  0  0  0
   -6.7205   -1.2552    2.7704 H   0  0  0  0  0  0  0  0  0  0  0  0
   -5.3736   -0.1405    3.1867 H   0  0  0  0  0  0  0  0  0  0  0  0
   -5.1391   -1.9015    3.1273 H   0  0  0  0  0  0  0  0  0  0  0  0
   -3.2064   -1.3147    2.8647 H   0  0  0  0  0  0  0  0  0  0  0  0
   -1.6948   -3.1955    2.4294 H   0  0  0  0  0  0  0  0  0  0  0  0
   -1.0750   -2.7008    0.0526 H   0  0  0  0  0  0  0  0  0  0  0  0
   -2.6703   -3.2882   -0.4649 H   0  0  0  0  0  0  0  0  0  0  0  0
   -1.5271   -4.3830    0.3288 H   0  0  0  0  0  0  0  0  0  0  0  0
   -4.4867   -3.8186    1.3488 H   0  0  0  0  0  0  0  0  0  0  0  0
   -3.9875   -3.7965    3.0553 H   0  0  0  0  0  0  0  0  0  0  0  0
   -3.3108   -4.9933    1.9541 H   0  0  0  0  0  0  0  0  0  0  0  0
   -1.5072   -0.3769    0.6664 H   0  0  0  0  0  0  0  0  0  0  0  0
   -0.1300    1.6167    2.1415 H   0  0  0  0  0  0  0  0  0  0  0  0
    1.8509   -0.3480    3.3866 H   0  0  0  0  0  0  0  0  0  0  0  0
    3.1340    0.8926    1.6367 H   0  0  0  0  0  0  0  0  0  0  0  0
    3.5787    1.4267    3.2499 H   0  0  0  0  0  0  0  0  0  0  0  0
    2.5065    2.4293    2.2583 H   0  0  0  0  0  0  0  0  0  0  0  0
    0.7995    2.3944    4.2524 H   0  0  0  0  0  0  0  0  0  0  0  0
    2.0600    1.4695    5.0902 H   0  0  0  0  0  0  0  0  0  0  0  0
    0.4238    0.8390    5.0117 H   0  0  0  0  0  0  0  0  0  0  0  0
    0.6240    1.0347   -1.2577 H   0  0  0  0  0  0  0  0  0  0  0  0
    1.2768    2.1410   -0.0344 H   0  0  0  0  0  0  0  0  0  0  0  0
   -0.4810    1.8242   -0.1230 H   0  0  0  0  0  0  0  0  0  0  0  0
    2.7330   -2.7474   -0.5276 H   0  0  0  0  0  0  0  0  0  0  0  0
    2.5393   -2.2398   -2.2077 H   0  0  0  0  0  0  0  0  0  0  0  0
    5.1137   -2.7279   -0.0556 H   0  0  0  0  0  0  0  0  0  0  0  0
    7.2624   -1.5388    0.0282 H   0  0  0  0  0  0  0  0  0  0  0  0
    5.5543    1.6733   -2.2886 H   0  0  0  0  0  0  0  0  0  0  0  0
    3.4369    0.4876   -2.3823 H   0  0  0  0  0  0  0  0  0  0  0  0
    8.5595    0.3489   -0.5203 H   0  0  0  0  0  0  0  0  0  0  0  0
    9.3642    3.7771   -1.2917 H   0  0  0  0  0  0  0  0  0  0  0  0
   10.4950    3.7113    0.8599 H   0  0  0  0  0  0  0  0  0  0  0  0
    8.7554    3.8653    1.0206 H   0  0  0  0  0  0  0  0  0  0  0  0
    8.6581    1.3495    1.5305 H   0  0  0  0  0  0  0  0  0  0  0  0
    9.2867    2.4298    2.7372 H   0  0  0  0  0  0  0  0  0  0  0  0
   11.2483    0.9965    0.8920 H   0  0  0  0  0  0  0  0  0  0  0  0
   11.5485    1.8111    2.4289 H   0  0  0  0  0  0  0  0  0  0  0  0
   11.3035   -0.2814    3.2588 H   0  0  0  0  0  0  0  0  0  0  0  0
    9.4320   -2.9330    2.2756 H   0  0  0  0  0  0  0  0  0  0  0  0
    9.7795   -2.0217    3.6631 H   0  0  0  0  0  0  0  0  0  0  0  0
   11.3558    2.2026   -0.8901 H   0  0  0  0  0  0  0  0  0  0  0  0
   11.7930    1.8426   -4.3997 H   0  0  0  0  0  0  0  0  0  0  0  0
   12.1503    3.8901   -2.5063 H   0  0  0  0  0  0  0  0  0  0  0  0
   13.5516    2.3481   -1.0448 H   0  0  0  0  0  0  0  0  0  0  0  0
   14.3603    3.8142   -1.5949 H   0  0  0  0  0  0  0  0  0  0  0  0
   14.7322    2.2698   -2.3687 H   0  0  0  0  0  0  0  0  0  0  0  0
   13.9293    4.7040   -3.9428 H   0  0  0  0  0  0  0  0  0  0  0  0
   12.6105    4.0428   -4.9153 H   0  0  0  0  0  0  0  0  0  0  0  0
   14.1143    3.1206   -4.7033 H   0  0  0  0  0  0  0  0  0  0  0  0
   11.9205   -0.0165   -2.3447 H   0  0  0  0  0  0  0  0  0  0  0  0
   14.1489   -1.4100   -2.2378 H   0  0  0  0  0  0  0  0  0  0  0  0
   12.8730   -2.0070   -3.2988 H   0  0  0  0  0  0  0  0  0  0  0  0
   14.4274   -2.1338   -5.2086 H   0  0  0  0  0  0  0  0  0  0  0  0
   14.9106   -3.1592   -3.8653 H   0  0  0  0  0  0  0  0  0  0  0  0
   16.8127   -2.1301   -4.9313 H   0  0  0  0  0  0  0  0  0  0  0  0
   16.2164   -0.5084   -4.6924 H   0  0  0  0  0  0  0  0  0  0  0  0
   18.0561   -1.6010   -3.1195 H   0  0  0  0  0  0  0  0  0  0  0  0
   16.6961   -2.3270   -2.2836 H   0  0  0  0  0  0  0  0  0  0  0  0
   17.1868    0.6769   -2.7661 H   0  0  0  0  0  0  0  0  0  0  0  0
   15.7742    0.0375   -1.9102 H   0  0  0  0  0  0  0  0  0  0  0  0
   20.0153    0.5526    1.1674 H   0  0  0  0  0  0  0  0  0  0  0  0
   18.1801   -1.1028    2.1983 H   0  0  0  0  0  0  0  0  0  0  0  0
  1  2  1  0
  2  3  1  0
  3  4  1  0
  3  5  1  0
  5  6  1  0
  6  7  1  0
  7  8  1  0
  8  9  2  0
  8 10  1  0
 10 11  1  0
 11 12  1  0
 12 13  1  0
 13 14  1  0
 14 15  1  0
 15 16  1  0
 16 17  1  0
 16 18  1  0
 18 19  2  0
 18 20  1  0
 20 21  1  0
 21 22  1  0
 21 23  1  0
 23 24  1  0
 24 25  2  0
 25 26  1  0
 26 27  2  0
 27 28  1  0
 28 29  2  0
 23 30  1  0
 15 31  1  0
 31 32  1  0
  6 33  1  0
 33 34  1  0
  5 35  1  0
 35 36  1  0
 35 37  1  0
 37 38  2  0
 37 39  1  0
 39 40  1  0
 40 41  1  0
 40 42  1  0
 39 43  1  0
 43 44  1  0
 44 45  2  0
 44 46  1  0
 46 47  1  0
 47 48  1  0
 47 49  1  0
 46 50  1  0
 50 51  1  0
 50 52  1  0
 52 53  2  0
 52 54  1  0
 54 55  1  0
 55 56  1  0
 56 57  1  0
 57 58  2  0
 58 59  1  0
 59 60  2  0
 60 61  1  0
 59 62  1  0
 62 63  1  0
 63 64  2  0
 63 65  1  0
 65 66  1  0
 66 67  1  0
 67 68  1  0
 68 69  1  0
 69 70  1  0
 70 71  2  0
 70 72  1  0
 65 73  1  0
 73 74  1  0
 74 75  2  0
 74 76  1  0
 76 77  1  0
 77 78  1  0
 77 79  1  0
 76 80  1  0
 80 81  1  0
 81 82  2  0
 81 83  1  0
 83 84  1  0
 84 85  1  0
 85 86  1  0
 86 87  1  0
 87 88  1  0
 88 89  1  0
 89 90  2  0
 89 91  1  0
 91 92  2  0
 92 93  1  0
 93 94  2  0
 14 10  1  0
 29 24  1  0
 61 56  2  0
 93 88  1  0
  1 95  1  0
  1 96  1  0
  1 97  1  0
  2 98  1  0
  2 99  1  0
  3100  1  6
  4101  1  0
  4102  1  0
  4103  1  0
  5104  1  6
  6105  1  6
  7106  1  0
  7107  1  0
 11108  1  0
 11109  1  0
 12110  1  0
 12111  1  0
 13112  1  0
 13113  1  0
 14114  1  6
 15115  1  1
 16116  1  1
 17117  1  0
 17118  1  0
 17119  1  0
 20120  1  0
 21121  1  6
 22122  1  0
 22123  1  0
 22124  1  0
 23125  1  1
 25126  1  0
 26127  1  0
 27128  1  0
 28129  1  0
 29130  1  0
 30131  1  0
 32132  1  0
 32133  1  0
 32134  1  0
 34135  1  0
 34136  1  0
 34137  1  0
 36138  1  0
 36139  1  0
 36140  1  0
 39141  1  1
 40142  1  0
 41143  1  0
 41144  1  0
 41145  1  0
 42146  1  0
 42147  1  0
 42148  1  0
 43149  1  0
 46150  1  6
 47151  1  0
 48152  1  0
 48153  1  0
 48154  1  0
 49155  1  0
 49156  1  0
 49157  1  0
 51158  1  0
 51159  1  0
 51160  1  0
 55161  1  0
 55162  1  0
 57163  1  0
 58164  1  0
 60165  1  0
 61166  1  0
 62167  1  0
 65168  1  6
 66169  1  0
 66170  1  0
 67171  1  0
 67172  1  0
 68173  1  0
 68174  1  0
 69175  1  0
 72176  1  0
 72177  1  0
 73178  1  0
 76179  1  6
 77180  1  0
 78181  1  0
 78182  1  0
 78183  1  0
 79184  1  0
 79185  1  0
 79186  1  0
 80187  1  0
 83188  1  0
 83189  1  0
 84190  1  0
 84191  1  0
 85192  1  0
 85193  1  0
 86194  1  0
 86195  1  0
 87196  1  0
 87197  1  0
 91198  1  0
 92199  1  0
M  END
$$$$

     RDKit          3D

199202  0  0  0  0  0  0  0  0999 V2000
   -7.8219   -0.4595   -4.0889 C   0  0  0  0  0  0  0  0  0  0  0  0
   -6.7106   -1.5023   -4.1353 C   0  0  0  0  0  0  0  0  0  0  0  0
   -5.6920   -1.4160   -2.9784 C   0  0  2  0  0  0  0  0  0  0  0  0
   -4.6184   -2.4883   -3.2190 C   0  0  0  0  0  0  0  0  0  0  0  0
   -6.2986   -1.4359   -1.5193 C   0  0  1  0  0  0  0  0  0  0  0  0
   -6.8900   -2.8150   -1.0745 C   0  0  1  0  0  0  0  0  0  0  0  0
   -7.4520   -2.8353    0.3594 C   0  0  0  0  0  0  0  0  0  0  0  0
   -8.5418   -1.8137    0.6771 C   0  0  0  0  0  0  0  0  0  0  0  0
   -8.2342   -0.8549    1.3766 O   0  0  0  0  0  0  0  0  0  0  0  0
   -9.8285   -2.0176    0.2148 N   0  0  0  0  0  0  0  0  0  0  0  0
  -10.3633   -3.3634    0.0136 C   0  0  0  0  0  0  0  0  0  0  0  0
  -11.7580   -3.3562    0.6519 C   0  0  0  0  0  0  0  0  0  0  0  0
  -11.8624   -2.0009    1.3480 C   0  0  0  0  0  0  0  0  0  0  0  0
  -10.9790   -1.1185    0.4573 C   0  0  1  0  0  0  0  0  0  0  0  0
  -10.8047    0.3523    0.9333 C   0  0  1  0  0  0  0  0  0  0  0  0
  -10.7083    1.3721   -0.2338 C   0  0  1  0  0  0  0  0  0  0  0  0
   -9.4121    1.2229   -1.0169 C   0  0  0  0  0  0  0  0  0  0  0  0
  -11.9185    1.2884   -1.1696 C   0  0  0  0  0  0  0  0  0  0  0  0
  -11.8463    0.9730   -2.3542 O   0  0  0  0  0  0  0  0  0  0  0  0
  -13.1099    1.5819   -0.5464 N   0  0  0  0  0  0  0  0  0  0  0  0
  -14.4106    1.4782   -1.2065 C   0  0  2  0  0  0  0  0  0  0  0  0
  -14.6327    2.6563   -2.1572 C   0  0  0  0  0  0  0  0  0  0  0  0
  -15.5699    1.2645   -0.1857 C   0  0  1  0  0  0  0  0  0  0  0  0
  -15.7715    2.3803    0.8272 C   0  0  0  0  0  0  0  0  0  0  0  0
  -15.2889    2.2349    2.1382 C   0  0  0  0  0  0  0  0  0  0  0  0
  -15.4474    3.2551    3.0761 C   0  0  0  0  0  0  0  0  0  0  0  0
  -16.0942    4.4361    2.7179 C   0  0  0  0  0  0  0  0  0  0  0  0
  -16.5873    4.5944    1.4240 C   0  0  0  0  0  0  0  0  0  0  0  0
  -16.4314    3.5703    0.4875 C   0  0  0  0  0  0  0  0  0  0  0  0
  -16.7973    0.9922   -0.8729 O   0  0  0  0  0  0  0  0  0  0  0  0
  -11.9455    0.7479    1.7453 O   0  0  0  0  0  0  0  0  0  0  0  0
  -11.5803    0.9837    3.1018 C   0  0  0  0  0  0  0  0  0  0  0  0
   -7.9014   -3.2535   -1.9901 O   0  0  0  0  0  0  0  0  0  0  0  0
   -7.9226   -4.6644   -2.1833 C   0  0  0  0  0  0  0  0  0  0  0  0
   -5.3347   -0.8228   -0.5347 N   0  0  0  0  0  0  0  0  0  0  0  0
   -4.2535   -1.6373    0.0047 C   0  0  0  0  0  0  0  0  0  0  0  0
   -5.2795    0.5724   -0.4870 C   0  0  0  0  0  0  0  0  0  0  0  0
   -5.9585    1.2605   -1.2621 O   0  0  0  0  0  0  0  0  0  0  0  0
   -4.3489    1.3276    0.5089 C   0  0  1  0  0  0  0  0  0  0  0  0
   -4.7450    1.1966    2.0047 C   0  0  0  0  0  0  0  0  0  0  0  0
   -3.8898    2.0533    2.9479 C   0  0  0  0  0  0  0  0  0  0  0  0
   -6.2017    1.6634    2.1934 C   0  0  0  0  0  0  0  0  0  0  0  0
   -2.9333    1.2470    0.1102 N   0  0  0  0  0  0  0  0  0  0  0  0
   -1.9054    0.5649    0.7094 C   0  0  0  0  0  0  0  0  0  0  0  0
   -2.0909   -0.1352    1.7093 O   0  0  0  0  0  0  0  0  0  0  0  0
   -0.4704    0.7650    0.1184 C   0  0  1  0  0  0  0  0  0  0  0  0
   -0.3291    1.5946   -1.1936 C   0  0  0  0  0  0  0  0  0  0  0  0
   -0.6000    3.0998   -1.0715 C   0  0  0  0  0  0  0  0  0  0  0  0
    1.0652    1.4033   -1.8048 C   0  0  0  0  0  0  0  0  0  0  0  0
    0.4759    1.1781    1.1782 N   0  0  0  0  0  0  0  0  0  0  0  0
    0.1481    2.3251    2.0085 C   0  0  0  0  0  0  0  0  0  0  0  0
    1.4065    0.3017    1.7422 C   0  0  0  0  0  0  0  0  0  0  0  0
    2.0164    0.5525    2.7758 O   0  0  0  0  0  0  0  0  0  0  0  0
    1.5568   -0.8589    1.0473 O   0  0  0  0  0  0  0  0  0  0  0  0
    2.2016   -1.9112    1.7672 C   0  0  0  0  0  0  0  0  0  0  0  0
    3.6594   -2.0771    1.3999 C   0  0  0  0  0  0  0  0  0  0  0  0
    4.6574   -1.3402    2.0500 C   0  0  0  0  0  0  0  0  0  0  0  0
    6.0075   -1.5579    1.7584 C   0  0  0  0  0  0  0  0  0  0  0  0
    6.3893   -2.5083    0.8088 C   0  0  0  0  0  0  0  0  0  0  0  0
    5.3943   -3.2221    0.1315 C   0  0  0  0  0  0  0  0  0  0  0  0
    4.0463   -3.0048    0.4281 C   0  0  0  0  0  0  0  0  0  0  0  0
    7.7704   -2.6501    0.5352 N   0  0  0  0  0  0  0  0  0  0  0  0
    8.3609   -3.5568   -0.3321 C   0  0  0  0  0  0  0  0  0  0  0  0
    7.8211   -4.5876   -0.7356 O   0  0  0  0  0  0  0  0  0  0  0  0
    9.8366   -3.2174   -0.6860 C   0  0  1  0  0  0  0  0  0  0  0  0
   10.1150   -3.5052   -2.1726 C   0  0  0  0  0  0  0  0  0  0  0  0
   10.1745   -4.9923   -2.5606 C   0  0  0  0  0  0  0  0  0  0  0  0
   11.0805   -5.8648   -1.6883 C   0  0  0  0  0  0  0  0  0  0  0  0
   12.4586   -5.4511   -1.7702 N   0  0  0  0  0  0  0  0  0  0  0  0
   13.1600   -4.9596   -0.7109 C   0  0  0  0  0  0  0  0  0  0  0  0
   12.7399   -4.7564    0.4152 O   0  0  0  0  0  0  0  0  0  0  0  0
   14.4606   -4.7150   -1.0443 N   0  0  0  0  0  0  0  0  0  0  0  0
   10.1676   -1.8401   -0.2719 N   0  0  0  0  0  0  0  0  0  0  0  0
   11.4605   -1.3374   -0.2973 C   0  0  0  0  0  0  0  0  0  0  0  0
   12.3287   -1.7073   -1.0750 O   0  0  0  0  0  0  0  0  0  0  0  0
   11.6737   -0.0958    0.6188 C   0  0  1  0  0  0  0  0  0  0  0  0
   11.2067   -0.3632    2.0728 C   0  0  0  0  0  0  0  0  0  0  0  0
   12.0168   -1.4527    2.7825 C   0  0  0  0  0  0  0  0  0  0  0  0
   11.2213    0.9247    2.8994 C   0  0  0  0  0  0  0  0  0  0  0  0
   13.0880    0.2826    0.5513 N   0  0  0  0  0  0  0  0  0  0  0  0
   13.5112    1.1653   -0.4295 C   0  0  0  0  0  0  0  0  0  0  0  0
   12.7366    1.8696   -1.0606 O   0  0  0  0  0  0  0  0  0  0  0  0
   15.0043    1.1258   -0.7076 C   0  0  0  0  0  0  0  0  0  0  0  0
   15.8869    1.4784    0.4860 C   0  0  0  0  0  0  0  0  0  0  0  0
   16.5459    2.8563    0.3792 C   0  0  0  0  0  0  0  0  0  0  0  0
   15.5626    4.0244    0.4497 C   0  0  0  0  0  0  0  0  0  0  0  0
   16.2679    5.3768    0.6130 C   0  0  0  0  0  0  0  0  0  0  0  0
   17.0812    5.7384   -0.5318 N   0  0  0  0  0  0  0  0  0  0  0  0
   16.6083    6.3297   -1.6573 C   0  0  0  0  0  0  0  0  0  0  0  0
   15.4706    6.6683   -1.9268 O   0  0  0  0  0  0  0  0  0  0  0  0
   17.7474    6.5195   -2.5595 C   0  0  0  0  0  0  0  0  0  0  0  0
   18.8356    6.0540   -1.9454 C   0  0  0  0  0  0  0  0  0  0  0  0
   18.4189    5.5433   -0.6346 C   0  0  0  0  0  0  0  0  0  0  0  0
   19.1863    5.0350    0.1636 O   0  0  0  0  0  0  0  0  0  0  0  0
   -8.5557   -0.7054   -3.3201 H   0  0  0  0  0  0  0  0  0  0  0  0
   -8.3525   -0.4339   -5.0463 H   0  0  0  0  0  0  0  0  0  0  0  0
   -7.4194    0.5364   -3.8976 H   0  0  0  0  0  0  0  0  0  0  0  0
   -7.1559   -2.4997   -4.2017 H   0  0  0  0  0  0  0  0  0  0  0  0
   -6.1716   -1.3593   -5.0831 H   0  0  0  0  0  0  0  0  0  0  0  0
   -5.1861   -0.4474   -3.1066 H   0  0  0  0  0  0  0  0  0  0  0  0
   -5.0154   -3.4994   -3.1063 H   0  0  0  0  0  0  0  0  0  0  0  0
   -4.2245   -2.4116   -4.2406 H   0  0  0  0  0  0  0  0  0  0  0  0
   -3.7620   -2.3685   -2.5498 H   0  0  0  0  0  0  0  0  0  0  0  0
   -7.1519   -0.7517   -1.5453 H   0  0  0  0  0  0  0  0  0  0  0  0
   -6.0787   -3.5493   -1.1005 H   0  0  0  0  0  0  0  0  0  0  0  0
   -7.7969   -3.8380    0.6260 H   0  0  0  0  0  0  0  0  0  0  0  0
   -6.6341   -2.6444    1.0669 H   0  0  0  0  0  0  0  0  0  0  0  0
  -10.4460   -3.5420   -1.0647 H   0  0  0  0  0  0  0  0  0  0  0  0
   -9.7476   -4.1433    0.4595 H   0  0  0  0  0  0  0  0  0  0  0  0
  -12.5287   -3.4412   -0.1267 H   0  0  0  0  0  0  0  0  0  0  0  0
  -11.9054   -4.1891    1.3448 H   0  0  0  0  0  0  0  0  0  0  0  0
  -11.4491   -2.0729    2.3620 H   0  0  0  0  0  0  0  0  0  0  0  0
  -12.8956   -1.6542    1.4126 H   0  0  0  0  0  0  0  0  0  0  0  0
  -11.4920   -1.0845   -0.5165 H   0  0  0  0  0  0  0  0  0  0  0  0
   -9.9126    0.4791    1.5438 H   0  0  0  0  0  0  0  0  0  0  0  0
  -10.7229    2.3886    0.1903 H   0  0  0  0  0  0  0  0  0  0  0  0
   -9.3275    0.2294   -1.4599 H   0  0  0  0  0  0  0  0  0  0  0  0
   -9.3598    1.9514   -1.8324 H   0  0  0  0  0  0  0  0  0  0  0  0
   -8.5440    1.3874   -0.3709 H   0  0  0  0  0  0  0  0  0  0  0  0
  -13.0764    1.6830    0.4663 H   0  0  0  0  0  0  0  0  0  0  0  0
  -14.3781    0.5796   -1.8382 H   0  0  0  0  0  0  0  0  0  0  0  0
  -14.5249    3.6168   -1.6457 H   0  0  0  0  0  0  0  0  0  0  0  0
  -13.8951    2.6514   -2.9677 H   0  0  0  0  0  0  0  0  0  0  0  0
  -15.6230    2.6147   -2.6194 H   0  0  0  0  0  0  0  0  0  0  0  0
  -15.3479    0.3449    0.3725 H   0  0  0  0  0  0  0  0  0  0  0  0
  -14.7782    1.3218    2.4369 H   0  0  0  0  0  0  0  0  0  0  0  0
  -15.0626    3.1324    4.0856 H   0  0  0  0  0  0  0  0  0  0  0  0
  -16.2086    5.2376    3.4446 H   0  0  0  0  0  0  0  0  0  0  0  0
  -17.0867    5.5190    1.1410 H   0  0  0  0  0  0  0  0  0  0  0  0
  -16.8219    3.7181   -0.5187 H   0  0  0  0  0  0  0  0  0  0  0  0
  -17.5259    1.2629   -0.2836 H   0  0  0  0  0  0  0  0  0  0  0  0
  -10.8786    1.8219    3.1628 H   0  0  0  0  0  0  0  0  0  0  0  0
  -12.4836    1.2410    3.6614 H   0  0  0  0  0  0  0  0  0  0  0  0
  -11.1406    0.0841    3.5465 H   0  0  0  0  0  0  0  0  0  0  0  0
   -8.0481   -5.1912   -1.2317 H   0  0  0  0  0  0  0  0  0  0  0  0
   -7.0001   -4.9909   -2.6737 H   0  0  0  0  0  0  0  0  0  0  0  0
   -8.7694   -4.9124   -2.8293 H   0  0  0  0  0  0  0  0  0  0  0  0
   -4.4633   -2.7039   -0.0865 H   0  0  0  0  0  0  0  0  0  0  0  0
   -3.3349   -1.4251   -0.5447 H   0  0  0  0  0  0  0  0  0  0  0  0
   -4.1192   -1.4259    1.0628 H   0  0  0  0  0  0  0  0  0  0  0  0
   -4.5480    2.3856    0.2724 H   0  0  0  0  0  0  0  0  0  0  0  0
   -4.6789    0.1578    2.3233 H   0  0  0  0  0  0  0  0  0  0  0  0
   -2.8372    1.7722    2.9480 H   0  0  0  0  0  0  0  0  0  0  0  0
   -4.2389    1.9404    3.9792 H   0  0  0  0  0  0  0  0  0  0  0  0
   -3.9525    3.1169    2.6915 H   0  0  0  0  0  0  0  0  0  0  0  0
   -6.5203    1.5532    3.2379 H   0  0  0  0  0  0  0  0  0  0  0  0
   -6.8933    1.0918    1.5741 H   0  0  0  0  0  0  0  0  0  0  0  0
   -6.3152    2.7173    1.9163 H   0  0  0  0  0  0  0  0  0  0  0  0
   -2.7813    1.5746   -0.8398 H   0  0  0  0  0  0  0  0  0  0  0  0
   -0.2216   -0.2615   -0.1845 H   0  0  0  0  0  0  0  0  0  0  0  0
   -1.0466    1.1938   -1.9216 H   0  0  0  0  0  0  0  0  0  0  0  0
    0.2164    3.6182   -0.5598 H   0  0  0  0  0  0  0  0  0  0  0  0
   -0.6869    3.5444   -2.0704 H   0  0  0  0  0  0  0  0  0  0  0  0
   -1.5322    3.3216   -0.5458 H   0  0  0  0  0  0  0  0  0  0  0  0
    1.8502    1.7949   -1.1441 H   0  0  0  0  0  0  0  0  0  0  0  0
    1.1436    1.9318   -2.7634 H   0  0  0  0  0  0  0  0  0  0  0  0
    1.2725    0.3431   -1.9905 H   0  0  0  0  0  0  0  0  0  0  0  0
   -0.2547    1.9763    2.9633 H   0  0  0  0  0  0  0  0  0  0  0  0
    1.0583    2.9022    2.1957 H   0  0  0  0  0  0  0  0  0  0  0  0
   -0.5845    2.9742    1.5327 H   0  0  0  0  0  0  0  0  0  0  0  0
    2.0852   -1.8140    2.8570 H   0  0  0  0  0  0  0  0  0  0  0  0
    1.6619   -2.8324    1.5147 H   0  0  0  0  0  0  0  0  0  0  0  0
    4.3864   -0.6121    2.8144 H   0  0  0  0  0  0  0  0  0  0  0  0
    6.7502   -0.9731    2.2970 H   0  0  0  0  0  0  0  0  0  0  0  0
    5.6350   -3.9617   -0.6180 H   0  0  0  0  0  0  0  0  0  0  0  0
    3.2949   -3.5821   -0.1108 H   0  0  0  0  0  0  0  0  0  0  0  0
    8.4023   -2.0561    1.0574 H   0  0  0  0  0  0  0  0  0  0  0  0
   10.4583   -3.8414   -0.0446 H   0  0  0  0  0  0  0  0  0  0  0  0
   11.0687   -3.0645   -2.4888 H   0  0  0  0  0  0  0  0  0  0  0  0
    9.3545   -3.0071   -2.7884 H   0  0  0  0  0  0  0  0  0  0  0  0
    9.1647   -5.4203   -2.5563 H   0  0  0  0  0  0  0  0  0  0  0  0
   10.5132   -5.0599   -3.6056 H   0  0  0  0  0  0  0  0  0  0  0  0
   10.7407   -5.8917   -0.6488 H   0  0  0  0  0  0  0  0  0  0  0  0
   11.0406   -6.8970   -2.0515 H   0  0  0  0  0  0  0  0  0  0  0  0
   13.0170   -5.8172   -2.5248 H   0  0  0  0  0  0  0  0  0  0  0  0
   14.5767   -4.2481   -1.9322 H   0  0  0  0  0  0  0  0  0  0  0  0
   14.9732   -4.2861   -0.2840 H   0  0  0  0  0  0  0  0  0  0  0  0
    9.4442   -1.1358   -0.3968 H   0  0  0  0  0  0  0  0  0  0  0  0
   11.0640    0.7121    0.1944 H   0  0  0  0  0  0  0  0  0  0  0  0
   10.1629   -0.7063    2.0456 H   0  0  0  0  0  0  0  0  0  0  0  0
   13.0382   -1.1254    3.0063 H   0  0  0  0  0  0  0  0  0  0  0  0
   12.0759   -2.3712    2.1878 H   0  0  0  0  0  0  0  0  0  0  0  0
   11.5398   -1.7180    3.7336 H   0  0  0  0  0  0  0  0  0  0  0  0
   12.2445    1.2921    3.0584 H   0  0  0  0  0  0  0  0  0  0  0  0
   10.6511    1.7149    2.3962 H   0  0  0  0  0  0  0  0  0  0  0  0
   10.7651    0.7645    3.8851 H   0  0  0  0  0  0  0  0  0  0  0  0
   13.7292   -0.4804    0.7423 H   0  0  0  0  0  0  0  0  0  0  0  0
   15.2136    1.7641   -1.5721 H   0  0  0  0  0  0  0  0  0  0  0  0
   15.2259    0.0923   -1.0181 H   0  0  0  0  0  0  0  0  0  0  0  0
   16.7072    0.7430    0.5276 H   0  0  0  0  0  0  0  0  0  0  0  0
   15.3504    1.4005    1.4409 H   0  0  0  0  0  0  0  0  0  0  0  0
   17.2800    2.9485    1.1964 H   0  0  0  0  0  0  0  0  0  0  0  0
   17.1186    2.9108   -0.5577 H   0  0  0  0  0  0  0  0  0  0  0  0
   14.9336    4.0333   -0.4444 H   0  0  0  0  0  0  0  0  0  0  0  0
   14.8984    3.8818    1.3131 H   0  0  0  0  0  0  0  0  0  0  0  0
   16.9044    5.3649    1.5047 H   0  0  0  0  0  0  0  0  0  0  0  0
   15.5135    6.1593    0.7460 H   0  0  0  0  0  0  0  0  0  0  0  0
   17.6615    6.9658   -3.5323 H   0  0  0  0  0  0  0  0  0  0  0  0
   19.8515    6.0309   -2.2996 H   0  0  0  0  0  0  0  0  0  0  0  0
  1  2  1  0
  2  3  1  0
  3  4  1  0
  3  5  1  0
  5  6  1  0
  6  7  1  0
  7  8  1  0
  8  9  2  0
  8 10  1  0
 10 11  1  0
 11 12  1  0
 12 13  1  0
 13 14  1  0
 14 15  1  0
 15 16  1  0
 16 17  1  0
 16 18  1  0
 18 19  2  0
 18 20  1  0
 20 21  1  0
 21 22  1  0
 21 23  1  0
 23 24  1  0
 24 25  2  0
 25 26  1  0
 26 27  2  0
 27 28  1  0
 28 29  2  0
 23 30  1  0
 15 31  1  0
 31 32  1  0
  6 33  1  0
 33 34  1  0
  5 35  1  0
 35 36  1  0
 35 37  1  0
 37 38  2  0
 37 39  1  0
 39 40  1  0
 40 41  1  0
 40 42  1  0
 39 43  1  0
 43 44  1  0
 44 45  2  0
 44 46  1  0
 46 47  1  0
 47 48  1  0
 47 49  1  0
 46 50  1  0
 50 51  1  0
 50 52  1  0
 52 53  2  0
 52 54  1  0
 54 55  1  0
 55 56  1  0
 56 57  1  0
 57 58  2  0
 58 59  1  0
 59 60  2  0
 60 61  1  0
 59 62  1  0
 62 63  1  0
 63 64  2  0
 63 65  1  0
 65 66  1  0
 66 67  1  0
 67 68  1  0
 68 69  1  0
 69 70  1  0
 70 71  2  0
 70 72  1  0
 65 73  1  0
 73 74  1  0
 74 75  2  0
 74 76  1  0
 76 77  1  0
 77 78  1  0
 77 79  1  0
 76 80  1  0
 80 81  1  0
 81 82  2  0
 81 83  1  0
 83 84  1  0
 84 85  1  0
 85 86  1  0
 86 87  1  0
 87 88  1  0
 88 89  1  0
 89 90  2  0
 89 91  1  0
 91 92  2  0
 92 93  1  0
 93 94  2  0
 14 10  1  0
 29 24  1  0
 61 56  2  0
 93 88  1  0
  1 95  1  0
  1 96  1  0
  1 97  1  0
  2 98  1  0
  2 99  1  0
  3100  1  6
  4101  1  0
  4102  1  0
  4103  1  0
  5104  1  6
  6105  1  1
  7106  1  0
  7107  1  0
 11108  1  0
 11109  1  0
 12110  1  0
 12111  1  0
 13112  1  0
 13113  1  0
 14114  1  6
 15115  1  1
 16116  1  1
 17117  1  0
 17118  1  0
 17119  1  0
 20120  1  0
 21121  1  6
 22122  1  0
 22123  1  0
 22124  1  0
 23125  1  1
 25126  1  0
 26127  1  0
 27128  1  0
 28129  1  0
 29130  1  0
 30131  1  0
 32132  1  0
 32133  1  0
 32134  1  0
 34135  1  0
 34136  1  0
 34137  1  0
 36138  1  0
 36139  1  0
 36140  1  0
 39141  1  6
 40142  1  0
 41143  1  0
 41144  1  0
 41145  1  0
 42146  1  0
 42147  1  0
 42148  1  0
 43149  1  0
 46150  1  6
 47151  1  0
 48152  1  0
 48153  1  0
 48154  1  0
 49155  1  0
 49156  1  0
 49157  1  0
 51158  1  0
 51159  1  0
 51160  1  0
 55161  1  0
 55162  1  0
 57163  1  0
 58164  1  0
 60165  1  0
 61166  1  0
 62167  1  0
 65168  1  1
 66169  1  0
 66170  1  0
 67171  1  0
 67172  1  0
 68173  1  0
 68174  1  0
 69175  1  0
 72176  1  0
 72177  1  0
 73178  1  0
 76179  1  6
 77180  1  0
 78181  1  0
 78182  1  0
 78183  1  0
 79184  1  0
 79185  1  0
 79186  1  0
 80187  1  0
 83188  1  0
 83189  1  0
 84190  1  0
 84191  1  0
 85192  1  0
 85193  1  0
 86194  1  0
 86195  1  0
 87196  1  0
 87197  1  0
 91198  1  0
 92199  1  0
M  END
$$$$

     RDKit          3D

199202  0  0  0  0  0  0  0  0999 V2000
   -7.5974   -3.6099   -0.6591 C   0  0  0  0  0  0  0  0  0  0  0  0
   -6.2258   -3.2888   -0.0824 C   0  0  0  0  0  0  0  0  0  0  0  0
   -6.1575   -3.0416    1.4457 C   0  0  2  0  0  0  0  0  0  0  0  0
   -7.1753   -3.8851    2.2222 C   0  0  0  0  0  0  0  0  0  0  0  0
   -6.0019   -1.5234    1.8346 C   0  0  1  0  0  0  0  0  0  0  0  0
   -7.2181   -0.5467    1.5475 C   0  0  1  0  0  0  0  0  0  0  0  0
   -7.2537   -0.0753    0.0837 C   0  0  0  0  0  0  0  0  0  0  0  0
   -8.2344    1.0730   -0.1286 C   0  0  0  0  0  0  0  0  0  0  0  0
   -8.0744    2.1265    0.4895 O   0  0  0  0  0  0  0  0  0  0  0  0
   -9.2527    0.9066   -1.0480 N   0  0  0  0  0  0  0  0  0  0  0  0
   -9.3658   -0.2004   -1.9832 C   0  0  0  0  0  0  0  0  0  0  0  0
  -10.4761    0.1610   -2.9590 C   0  0  0  0  0  0  0  0  0  0  0  0
  -10.6336    1.6647   -2.8169 C   0  0  0  0  0  0  0  0  0  0  0  0
  -10.1721    1.9977   -1.3888 C   0  0  1  0  0  0  0  0  0  0  0  0
  -11.3453    2.2689   -0.3838 C   0  0  1  0  0  0  0  0  0  0  0  0
  -11.8879    1.0497    0.3873 C   0  0  1  0  0  0  0  0  0  0  0  0
  -12.7689    1.4521    1.5792 C   0  0  0  0  0  0  0  0  0  0  0  0
  -12.6703    0.0788   -0.4735 C   0  0  0  0  0  0  0  0  0  0  0  0
  -12.3546   -1.1109   -0.5545 O   0  0  0  0  0  0  0  0  0  0  0  0
  -13.7624    0.5950   -1.1333 N   0  0  0  0  0  0  0  0  0  0  0  0
  -14.6301   -0.2708   -1.9398 C   0  0  2  0  0  0  0  0  0  0  0  0
  -15.3516    0.5656   -2.9975 C   0  0  0  0  0  0  0  0  0  0  0  0
  -15.5817   -1.1590   -1.0797 C   0  0  1  0  0  0  0  0  0  0  0  0
  -16.4496   -0.3916   -0.1040 C   0  0  0  0  0  0  0  0  0  0  0  0
  -17.6116    0.2745   -0.5189 C   0  0  0  0  0  0  0  0  0  0  0  0
  -18.3795    1.0014    0.3965 C   0  0  0  0  0  0  0  0  0  0  0  0
  -18.0034    1.0573    1.7351 C   0  0  0  0  0  0  0  0  0  0  0  0
  -16.8633    0.3930    2.1633 C   0  0  0  0  0  0  0  0  0  0  0  0
  -16.0928   -0.3288    1.2529 C   0  0  0  0  0  0  0  0  0  0  0  0
  -16.4168   -1.9550   -1.9262 O   0  0  0  0  0  0  0  0  0  0  0  0
  -10.9172    3.2224    0.6093 O   0  0  0  0  0  0  0  0  0  0  0  0
  -11.0315    4.5748    0.1958 C   0  0  0  0  0  0  0  0  0  0  0  0
   -8.4513   -1.2123    1.8408 O   0  0  0  0  0  0  0  0  0  0  0  0
   -9.3464   -0.4678    2.6554 C   0  0  0  0  0  0  0  0  0  0  0  0
   -5.4905   -1.3824    3.2406 N   0  0  0  0  0  0  0  0  0  0  0  0
   -6.4773   -1.3039    4.3152 C   0  0  0  0  0  0  0  0  0  0  0  0
   -4.2976   -0.7262    3.5549 C   0  0  0  0  0  0  0  0  0  0  0  0
   -4.2644    0.0819    4.4882 O   0  0  0  0  0  0  0  0  0  0  0  0
   -2.9705   -1.0460    2.7876 C   0  0  1  0  0  0  0  0  0  0  0  0
   -2.6962   -2.5563    2.5658 C   0  0  0  0  0  0  0  0  0  0  0  0
   -2.9725   -3.3918    3.8232 C   0  0  0  0  0  0  0  0  0  0  0  0
   -1.2409   -2.8060    2.1465 C   0  0  0  0  0  0  0  0  0  0  0  0
   -2.7502   -0.2463    1.5712 N   0  0  0  0  0  0  0  0  0  0  0  0
   -2.3160    1.0631    1.7296 C   0  0  0  0  0  0  0  0  0  0  0  0
   -2.4627    1.6847    2.7828 O   0  0  0  0  0  0  0  0  0  0  0  0
   -1.4103    1.6150    0.5965 C   0  0  1  0  0  0  0  0  0  0  0  0
   -1.5219    3.1591    0.5096 C   0  0  0  0  0  0  0  0  0  0  0  0
   -0.5712    3.7444   -0.5414 C   0  0  0  0  0  0  0  0  0  0  0  0
   -2.9562    3.5799    0.1588 C   0  0  0  0  0  0  0  0  0  0  0  0
   -0.0244    1.1730    0.8891 N   0  0  0  0  0  0  0  0  0  0  0  0
    0.4517    1.2341    2.2661 C   0  0  0  0  0  0  0  0  0  0  0  0
    0.5315    0.1912    0.0950 C   0  0  0  0  0  0  0  0  0  0  0  0
    0.9315   -0.8840    0.5199 O   0  0  0  0  0  0  0  0  0  0  0  0
    0.6667    0.6084   -1.1880 O   0  0  0  0  0  0  0  0  0  0  0  0
    1.4247   -0.2541   -2.0487 C   0  0  0  0  0  0  0  0  0  0  0  0
    2.9306   -0.0557   -2.0037 C   0  0  0  0  0  0  0  0  0  0  0  0
    3.6266    0.2766   -0.8298 C   0  0  0  0  0  0  0  0  0  0  0  0
    5.0272    0.3284   -0.8062 C   0  0  0  0  0  0  0  0  0  0  0  0
    5.7661    0.0739   -1.9596 C   0  0  0  0  0  0  0  0  0  0  0  0
    5.0882   -0.2607   -3.1305 C   0  0  0  0  0  0  0  0  0  0  0  0
    3.6881   -0.3360   -3.1491 C   0  0  0  0  0  0  0  0  0  0  0  0
    7.1750    0.0868   -1.8725 N   0  0  0  0  0  0  0  0  0  0  0  0
    8.0441    0.3165   -2.9268 C   0  0  0  0  0  0  0  0  0  0  0  0
    7.7055    0.7264   -4.0336 O   0  0  0  0  0  0  0  0  0  0  0  0
    9.5050   -0.0987   -2.6227 C   0  0  1  0  0  0  0  0  0  0  0  0
   10.5011    0.5866   -3.5768 C   0  0  0  0  0  0  0  0  0  0  0  0
   10.6666    2.0914   -3.3252 C   0  0  0  0  0  0  0  0  0  0  0  0
   11.5293    2.7615   -4.3985 C   0  0  0  0  0  0  0  0  0  0  0  0
   12.8969    3.0880   -4.0293 N   0  0  0  0  0  0  0  0  0  0  0  0
   13.7741    2.2812   -3.3735 C   0  0  0  0  0  0  0  0  0  0  0  0
   13.5164    1.2554   -2.7647 O   0  0  0  0  0  0  0  0  0  0  0  0
   15.0444    2.7623   -3.4251 N   0  0  0  0  0  0  0  0  0  0  0  0
    9.8885    0.0558   -1.2161 N   0  0  0  0  0  0  0  0  0  0  0  0
   10.9128   -0.7423   -0.7233 C   0  0  0  0  0  0  0  0  0  0  0  0
   11.3463   -1.7274   -1.3232 O   0  0  0  0  0  0  0  0  0  0  0  0
   11.4401   -0.3502    0.6721 C   0  0  1  0  0  0  0  0  0  0  0  0
   10.5343   -0.9340    1.7784 C   0  0  0  0  0  0  0  0  0  0  0  0
   10.6285   -2.4589    1.8877 C   0  0  0  0  0  0  0  0  0  0  0  0
   10.8416   -0.3036    3.1368 C   0  0  0  0  0  0  0  0  0  0  0  0
   12.8280   -0.8054    0.7544 N   0  0  0  0  0  0  0  0  0  0  0  0
   13.8214    0.0158    1.2298 C   0  0  0  0  0  0  0  0  0  0  0  0
   13.5942    1.0495    1.8549 O   0  0  0  0  0  0  0  0  0  0  0  0
   15.2311   -0.4931    0.9649 C   0  0  0  0  0  0  0  0  0  0  0  0
   16.1687    0.6870    0.7130 C   0  0  0  0  0  0  0  0  0  0  0  0
   17.5875    0.2811    0.3126 C   0  0  0  0  0  0  0  0  0  0  0  0
   18.3352   -0.4768    1.4120 C   0  0  0  0  0  0  0  0  0  0  0  0
   19.8435   -0.5591    1.1487 C   0  0  0  0  0  0  0  0  0  0  0  0
   20.1833   -1.3306   -0.0330 N   0  0  0  0  0  0  0  0  0  0  0  0
   20.2342   -2.6865   -0.0763 C   0  0  0  0  0  0  0  0  0  0  0  0
   20.0034   -3.4924    0.8064 O   0  0  0  0  0  0  0  0  0  0  0  0
   20.6383   -3.0594   -1.4363 C   0  0  0  0  0  0  0  0  0  0  0  0
   20.8055   -1.9351   -2.1337 C   0  0  0  0  0  0  0  0  0  0  0  0
   20.5141   -0.8095   -1.2400 C   0  0  0  0  0  0  0  0  0  0  0  0
   20.5801    0.3538   -1.5854 O   0  0  0  0  0  0  0  0  0  0  0  0
   -7.9138   -4.6216   -0.3865 H   0  0  0  0  0  0  0  0  0  0  0  0
   -8.3631   -2.9132   -0.3144 H   0  0  0  0  0  0  0  0  0  0  0  0
   -7.5616   -3.5643   -1.7523 H   0  0  0  0  0  0  0  0  0  0  0  0
   -5.5739   -4.1400   -0.3188 H   0  0  0  0  0  0  0  0  0  0  0  0
   -5.7851   -2.4417   -0.6209 H   0  0  0  0  0  0  0  0  0  0  0  0
   -5.2115   -3.4976    1.7416 H   0  0  0  0  0  0  0  0  0  0  0  0
   -7.1225   -4.9298    1.8947 H   0  0  0  0  0  0  0  0  0  0  0  0
   -8.2058   -3.5575    2.0836 H   0  0  0  0  0  0  0  0  0  0  0  0
   -6.9498   -3.8977    3.2883 H   0  0  0  0  0  0  0  0  0  0  0  0
   -5.1784   -1.1465    1.2184 H   0  0  0  0  0  0  0  0  0  0  0  0
   -7.0990    0.3419    2.1807 H   0  0  0  0  0  0  0  0  0  0  0  0
   -7.4842   -0.9031   -0.5814 H   0  0  0  0  0  0  0  0  0  0  0  0
   -6.2658    0.3070   -0.2116 H   0  0  0  0  0  0  0  0  0  0  0  0
   -9.5868   -1.1231   -1.4417 H   0  0  0  0  0  0  0  0  0  0  0  0
   -8.4146   -0.3172   -2.5107 H   0  0  0  0  0  0  0  0  0  0  0  0
  -10.2217   -0.1266   -3.9852 H   0  0  0  0  0  0  0  0  0  0  0  0
  -11.4030   -0.3619   -2.7150 H   0  0  0  0  0  0  0  0  0  0  0  0
  -11.6418    2.0111   -3.0572 H   0  0  0  0  0  0  0  0  0  0  0  0
   -9.9457    2.1373   -3.5274 H   0  0  0  0  0  0  0  0  0  0  0  0
   -9.5652    2.9071   -1.4531 H   0  0  0  0  0  0  0  0  0  0  0  0
  -12.1722    2.7324   -0.9360 H   0  0  0  0  0  0  0  0  0  0  0  0
  -11.0482    0.4904    0.8008 H   0  0  0  0  0  0  0  0  0  0  0  0
  -13.5902    2.1102    1.2713 H   0  0  0  0  0  0  0  0  0  0  0  0
  -13.2115    0.5705    2.0562 H   0  0  0  0  0  0  0  0  0  0  0  0
  -12.1868    1.9739    2.3477 H   0  0  0  0  0  0  0  0  0  0  0  0
  -14.1790    1.4379   -0.7713 H   0  0  0  0  0  0  0  0  0  0  0  0
  -13.9818   -0.9648   -2.4932 H   0  0  0  0  0  0  0  0  0  0  0  0
  -15.9409    1.3684   -2.5484 H   0  0  0  0  0  0  0  0  0  0  0  0
  -14.6211    1.0395   -3.6608 H   0  0  0  0  0  0  0  0  0  0  0  0
  -16.0083   -0.0554   -3.6144 H   0  0  0  0  0  0  0  0  0  0  0  0
  -14.9674   -1.8718   -0.5115 H   0  0  0  0  0  0  0  0  0  0  0  0
  -17.9245    0.2338   -1.5552 H   0  0  0  0  0  0  0  0  0  0  0  0
  -19.2774    1.5173    0.0605 H   0  0  0  0  0  0  0  0  0  0  0  0
  -18.6052    1.6198    2.4450 H   0  0  0  0  0  0  0  0  0  0  0  0
  -16.5670    0.4296    3.2118 H   0  0  0  0  0  0  0  0  0  0  0  0
  -15.2009   -0.8481    1.6061 H   0  0  0  0  0  0  0  0  0  0  0  0
  -17.0074   -2.4552   -1.3317 H   0  0  0  0  0  0  0  0  0  0  0  0
  -10.4801    4.7691   -0.7280 H   0  0  0  0  0  0  0  0  0  0  0  0
  -12.0857    4.8397    0.0601 H   0  0  0  0  0  0  0  0  0  0  0  0
  -10.6172    5.2134    0.9826 H   0  0  0  0  0  0  0  0  0  0  0  0
  -10.3388   -0.9194    2.5643 H   0  0  0  0  0  0  0  0  0  0  0  0
   -9.4015    0.5824    2.3621 H   0  0  0  0  0  0  0  0  0  0  0  0
   -9.0584   -0.5340    3.7048 H   0  0  0  0  0  0  0  0  0  0  0  0
   -6.9169   -0.3059    4.3265 H   0  0  0  0  0  0  0  0  0  0  0  0
   -7.2490   -2.0602    4.2043 H   0  0  0  0  0  0  0  0  0  0  0  0
   -5.9875   -1.4590    5.2809 H   0  0  0  0  0  0  0  0  0  0  0  0
   -2.1885   -0.7226    3.4953 H   0  0  0  0  0  0  0  0  0  0  0  0
   -3.3117   -2.9253    1.7417 H   0  0  0  0  0  0  0  0  0  0  0  0
   -2.4215   -3.0031    4.6853 H   0  0  0  0  0  0  0  0  0  0  0  0
   -2.6709   -4.4340    3.6772 H   0  0  0  0  0  0  0  0  0  0  0  0
   -4.0360   -3.4118    4.0800 H   0  0  0  0  0  0  0  0  0  0  0  0
   -0.5333   -2.4003    2.8787 H   0  0  0  0  0  0  0  0  0  0  0  0
   -1.0434   -3.8789    2.0490 H   0  0  0  0  0  0  0  0  0  0  0  0
   -1.0354   -2.3585    1.1687 H   0  0  0  0  0  0  0  0  0  0  0  0
   -2.3806   -0.7383    0.7664 H   0  0  0  0  0  0  0  0  0  0  0  0
   -1.7325    1.1747   -0.3561 H   0  0  0  0  0  0  0  0  0  0  0  0
   -1.2667    3.6118    1.4768 H   0  0  0  0  0  0  0  0  0  0  0  0
   -0.7678    3.3173   -1.5319 H   0  0  0  0  0  0  0  0  0  0  0  0
   -0.6982    4.8329   -0.6090 H   0  0  0  0  0  0  0  0  0  0  0  0
    0.4763    3.5522   -0.2863 H   0  0  0  0  0  0  0  0  0  0  0  0
   -3.0270    4.6655    0.0316 H   0  0  0  0  0  0  0  0  0  0  0  0
   -3.6627    3.3005    0.9474 H   0  0  0  0  0  0  0  0  0  0  0  0
   -3.2867    3.1082   -0.7731 H   0  0  0  0  0  0  0  0  0  0  0  0
    1.5439    1.1545    2.2626 H   0  0  0  0  0  0  0  0  0  0  0  0
    0.0561    0.3939    2.8461 H   0  0  0  0  0  0  0  0  0  0  0  0
    0.1732    2.1869    2.7234 H   0  0  0  0  0  0  0  0  0  0  0  0
    1.0797   -0.0267   -3.0634 H   0  0  0  0  0  0  0  0  0  0  0  0
    1.1859   -1.3082   -1.8643 H   0  0  0  0  0  0  0  0  0  0  0  0
    3.1009    0.5009    0.0897 H   0  0  0  0  0  0  0  0  0  0  0  0
    5.5128    0.6044    0.1221 H   0  0  0  0  0  0  0  0  0  0  0  0
    5.6292   -0.4921   -4.0463 H   0  0  0  0  0  0  0  0  0  0  0  0
    3.1987   -0.6268   -4.0771 H   0  0  0  0  0  0  0  0  0  0  0  0
    7.5876    0.0673   -0.9473 H   0  0  0  0  0  0  0  0  0  0  0  0
    9.5319   -1.1730   -2.8505 H   0  0  0  0  0  0  0  0  0  0  0  0
   11.4716    0.0911   -3.4958 H   0  0  0  0  0  0  0  0  0  0  0  0
   10.1667    0.4336   -4.6089 H   0  0  0  0  0  0  0  0  0  0  0  0
   11.0567    2.2932   -2.3229 H   0  0  0  0  0  0  0  0  0  0  0  0
    9.6699    2.5522   -3.3686 H   0  0  0  0  0  0  0  0  0  0  0  0
   11.5724    2.1698   -5.3174 H   0  0  0  0  0  0  0  0  0  0  0  0
   11.0698    3.7280   -4.6523 H   0  0  0  0  0  0  0  0  0  0  0  0
   13.2554    3.9835   -4.3302 H   0  0  0  0  0  0  0  0  0  0  0  0
   15.3441    3.1298   -4.3232 H   0  0  0  0  0  0  0  0  0  0  0  0
   15.7126    2.1276   -3.0067 H   0  0  0  0  0  0  0  0  0  0  0  0
    9.8319    0.9898   -0.8316 H   0  0  0  0  0  0  0  0  0  0  0  0
   11.4339    0.7471    0.7258 H   0  0  0  0  0  0  0  0  0  0  0  0
    9.4939   -0.6870    1.5328 H   0  0  0  0  0  0  0  0  0  0  0  0
   10.3654   -2.9437    0.9431 H   0  0  0  0  0  0  0  0  0  0  0  0
    9.9354   -2.8322    2.6505 H   0  0  0  0  0  0  0  0  0  0  0  0
   11.6361   -2.7829    2.1702 H   0  0  0  0  0  0  0  0  0  0  0  0
   10.6987    0.7815    3.1029 H   0  0  0  0  0  0  0  0  0  0  0  0
   11.8729   -0.5042    3.4492 H   0  0  0  0  0  0  0  0  0  0  0  0
   10.1750   -0.7057    3.9092 H   0  0  0  0  0  0  0  0  0  0  0  0
   13.0679   -1.5960    0.1593 H   0  0  0  0  0  0  0  0  0  0  0  0
   15.5468   -1.0762    1.8381 H   0  0  0  0  0  0  0  0  0  0  0  0
   15.2304   -1.1569    0.0920 H   0  0  0  0  0  0  0  0  0  0  0  0
   16.2107    1.3294    1.6008 H   0  0  0  0  0  0  0  0  0  0  0  0
   15.7503    1.3062   -0.0906 H   0  0  0  0  0  0  0  0  0  0  0  0
   17.5572   -0.3214   -0.6029 H   0  0  0  0  0  0  0  0  0  0  0  0
   18.1386    1.2002    0.0703 H   0  0  0  0  0  0  0  0  0  0  0  0
   18.1893    0.0329    2.3703 H   0  0  0  0  0  0  0  0  0  0  0  0
   17.9210   -1.4861    1.5173 H   0  0  0  0  0  0  0  0  0  0  0  0
   20.2630    0.4494    1.0508 H   0  0  0  0  0  0  0  0  0  0  0  0
   20.3238   -1.0366    2.0102 H   0  0  0  0  0  0  0  0  0  0  0  0
   20.7670   -4.0773   -1.7602 H   0  0  0  0  0  0  0  0  0  0  0  0
   21.1026   -1.8229   -3.1595 H   0  0  0  0  0  0  0  0  0  0  0  0
  1  2  1  0
  2  3  1  0
  3  4  1  0
  3  5  1  0
  5  6  1  0
  6  7  1  0
  7  8  1  0
  8  9  2  0
  8 10  1  0
 10 11  1  0
 11 12  1  0
 12 13  1  0
 13 14  1  0
 14 15  1  0
 15 16  1  0
 16 17  1  0
 16 18  1  0
 18 19  2  0
 18 20  1  0
 20 21  1  0
 21 22  1  0
 21 23  1  0
 23 24  1  0
 24 25  2  0
 25 26  1  0
 26 27  2  0
 27 28  1  0
 28 29  2  0
 23 30  1  0
 15 31  1  0
 31 32  1  0
  6 33  1  0
 33 34  1  0
  5 35  1  0
 35 36  1  0
 35 37  1  0
 37 38  2  0
 37 39  1  0
 39 40  1  0
 40 41  1  0
 40 42  1  0
 39 43  1  0
 43 44  1  0
 44 45  2  0
 44 46  1  0
 46 47  1  0
 47 48  1  0
 47 49  1  0
 46 50  1  0
 50 51  1  0
 50 52  1  0
 52 53  2  0
 52 54  1  0
 54 55  1  0
 55 56  1  0
 56 57  1  0
 57 58  2  0
 58 59  1  0
 59 60  2  0
 60 61  1  0
 59 62  1  0
 62 63  1  0
 63 64  2  0
 63 65  1  0
 65 66  1  0
 66 67  1  0
 67 68  1  0
 68 69  1  0
 69 70  1  0
 70 71  2  0
 70 72  1  0
 65 73  1  0
 73 74  1  0
 74 75  2  0
 74 76  1  0
 76 77  1  0
 77 78  1  0
 77 79  1  0
 76 80  1  0
 80 81  1  0
 81 82  2  0
 81 83  1  0
 83 84  1  0
 84 85  1  0
 85 86  1  0
 86 87  1  0
 87 88  1  0
 88 89  1  0
 89 90  2  0
 89 91  1  0
 91 92  2  0
 92 93  1  0
 93 94  2  0
 14 10  1  0
 29 24  1  0
 61 56  2  0
 93 88  1  0
  1 95  1  0
  1 96  1  0
  1 97  1  0
  2 98  1  0
  2 99  1  0
  3100  1  1
  4101  1  0
  4102  1  0
  4103  1  0
  5104  1  6
  6105  1  1
  7106  1  0
  7107  1  0
 11108  1  0
 11109  1  0
 12110  1  0
 12111  1  0
 13112  1  0
 13113  1  0
 14114  1  6
 15115  1  6
 16116  1  1
 17117  1  0
 17118  1  0
 17119  1  0
 20120  1  0
 21121  1  6
 22122  1  0
 22123  1  0
 22124  1  0
 23125  1  1
 25126  1  0
 26127  1  0
 27128  1  0
 28129  1  0
 29130  1  0
 30131  1  0
 32132  1  0
 32133  1  0
 32134  1  0
 34135  1  0
 34136  1  0
 34137  1  0
 36138  1  0
 36139  1  0
 36140  1  0
 39141  1  1
 40142  1  0
 41143  1  0
 41144  1  0
 41145  1  0
 42146  1  0
 42147  1  0
 42148  1  0
 43149  1  0
 46150  1  6
 47151  1  0
 48152  1  0
 48153  1  0
 48154  1  0
 49155  1  0
 49156  1  0
 49157  1  0
 51158  1  0
 51159  1  0
 51160  1  0
 55161  1  0
 55162  1  0
 57163  1  0
 58164  1  0
 60165  1  0
 61166  1  0
 62167  1  0
 65168  1  6
 66169  1  0
 66170  1  0
 67171  1  0
 67172  1  0
 68173  1  0
 68174  1  0
 69175  1  0
 72176  1  0
 72177  1  0
 73178  1  0
 76179  1  6
 77180  1  0
 78181  1  0
 78182  1  0
 78183  1  0
 79184  1  0
 79185  1  0
 79186  1  0
 80187  1  0
 83188  1  0
 83189  1  0
 84190  1  0
 84191  1  0
 85192  1  0
 85193  1  0
 86194  1  0
 86195  1  0
 87196  1  0
 87197  1  0
 91198  1  0
 92199  1  0
M  END
$$$$

     RDKit          3D

199202  0  0  0  0  0  0  0  0999 V2000
   -6.1565   -1.7189   -3.8374 C   0  0  0  0  0  0  0  0  0  0  0  0
   -5.9602   -0.7523   -2.6736 C   0  0  0  0  0  0  0  0  0  0  0  0
   -6.7901   -1.1426   -1.4186 C   0  0  2  0  0  0  0  0  0  0  0  0
   -8.2420   -0.7000   -1.6465 C   0  0  0  0  0  0  0  0  0  0  0  0
   -6.1710   -0.5166   -0.1152 C   0  0  1  0  0  0  0  0  0  0  0  0
   -6.8054   -0.9211    1.2655 C   0  0  1  0  0  0  0  0  0  0  0  0
   -8.2293   -0.4692    1.6097 C   0  0  0  0  0  0  0  0  0  0  0  0
   -8.5679    0.9685    1.3042 C   0  0  0  0  0  0  0  0  0  0  0  0
   -7.6943    1.8112    1.0723 O   0  0  0  0  0  0  0  0  0  0  0  0
   -9.9321    1.2847    1.2892 N   0  0  0  0  0  0  0  0  0  0  0  0
  -10.3028    2.5631    0.6861 C   0  0  0  0  0  0  0  0  0  0  0  0
  -10.9593    3.3375    1.8132 C   0  0  0  0  0  0  0  0  0  0  0  0
  -11.7380    2.2410    2.5186 C   0  0  0  0  0  0  0  0  0  0  0  0
  -10.7762    1.0377    2.4868 C   0  0  1  0  0  0  0  0  0  0  0  0
  -11.5354   -0.3187    2.5876 C   0  0  1  0  0  0  0  0  0  0  0  0
  -12.2721   -0.7400    1.2823 C   0  0  1  0  0  0  0  0  0  0  0  0
  -12.1824   -2.2425    1.0017 C   0  0  0  0  0  0  0  0  0  0  0  0
  -13.7549   -0.3622    1.3691 C   0  0  0  0  0  0  0  0  0  0  0  0
  -14.3093   -0.0251    2.4091 O   0  0  0  0  0  0  0  0  0  0  0  0
  -14.4282   -0.4246    0.1699 N   0  0  0  0  0  0  0  0  0  0  0  0
  -15.8965   -0.3374    0.1084 C   0  0  2  0  0  0  0  0  0  0  0  0
  -16.4622   -1.7579    0.2343 C   0  0  0  0  0  0  0  0  0  0  0  0
  -16.3804    0.3279   -1.2110 C   0  0  1  0  0  0  0  0  0  0  0  0
  -16.2251    1.8348   -1.3351 C   0  0  0  0  0  0  0  0  0  0  0  0
  -15.4538    2.6128   -0.4584 C   0  0  0  0  0  0  0  0  0  0  0  0
  -15.3551    3.9973   -0.6317 C   0  0  0  0  0  0  0  0  0  0  0  0
  -16.0325    4.6244   -1.6748 C   0  0  0  0  0  0  0  0  0  0  0  0
  -16.8053    3.8675   -2.5513 C   0  0  0  0  0  0  0  0  0  0  0  0
  -16.8908    2.4867   -2.3904 C   0  0  0  0  0  0  0  0  0  0  0  0
  -15.7247   -0.3129   -2.3135 O   0  0  0  0  0  0  0  0  0  0  0  0
  -10.6149   -1.3506    2.9998 O   0  0  0  0  0  0  0  0  0  0  0  0
  -10.7976   -1.7461    4.3589 C   0  0  0  0  0  0  0  0  0  0  0  0
   -6.7807   -2.3574    1.3939 O   0  0  0  0  0  0  0  0  0  0  0  0
   -6.4495   -2.8079    2.7011 C   0  0  0  0  0  0  0  0  0  0  0  0
   -4.6733   -0.7111   -0.0013 N   0  0  0  0  0  0  0  0  0  0  0  0
   -3.9461    0.3668    0.6593 C   0  0  0  0  0  0  0  0  0  0  0  0
   -4.1164   -1.9940   -0.1591 C   0  0  0  0  0  0  0  0  0  0  0  0
   -4.7431   -2.9227   -0.6721 O   0  0  0  0  0  0  0  0  0  0  0  0
   -2.6706   -2.2562    0.3855 C   0  0  1  0  0  0  0  0  0  0  0  0
   -2.3348   -3.7781    0.4079 C   0  0  0  0  0  0  0  0  0  0  0  0
   -0.8723   -4.0550    0.7783 C   0  0  0  0  0  0  0  0  0  0  0  0
   -3.2174   -4.5227    1.4293 C   0  0  0  0  0  0  0  0  0  0  0  0
   -1.6345   -1.4389   -0.2622 N   0  0  0  0  0  0  0  0  0  0  0  0
   -1.4185   -1.4640   -1.6274 C   0  0  0  0  0  0  0  0  0  0  0  0
   -2.1612   -2.0598   -2.4077 O   0  0  0  0  0  0  0  0  0  0  0  0
   -0.2608   -0.5647   -2.1624 C   0  0  1  0  0  0  0  0  0  0  0  0
   -0.6361    0.9448   -2.1524 C   0  0  0  0  0  0  0  0  0  0  0  0
   -1.9891    1.1955   -2.8325 C   0  0  0  0  0  0  0  0  0  0  0  0
    0.4192    1.7850   -2.8870 C   0  0  0  0  0  0  0  0  0  0  0  0
    1.0342   -0.9089   -1.5306 N   0  0  0  0  0  0  0  0  0  0  0  0
    1.5926   -2.1895   -1.9354 C   0  0  0  0  0  0  0  0  0  0  0  0
    1.3265   -0.5134   -0.2403 C   0  0  0  0  0  0  0  0  0  0  0  0
    1.3861   -1.2949    0.7030 O   0  0  0  0  0  0  0  0  0  0  0  0
    1.5286    0.8241   -0.1473 O   0  0  0  0  0  0  0  0  0  0  0  0
    2.1891    1.2631    1.0494 C   0  0  0  0  0  0  0  0  0  0  0  0
    3.6807    1.1519    0.8487 C   0  0  0  0  0  0  0  0  0  0  0  0
    4.3333    1.9572   -0.0899 C   0  0  0  0  0  0  0  0  0  0  0  0
    5.7122    1.8114   -0.3119 C   0  0  0  0  0  0  0  0  0  0  0  0
    6.4474    0.8442    0.3773 C   0  0  0  0  0  0  0  0  0  0  0  0
    5.7983    0.0473    1.3167 C   0  0  0  0  0  0  0  0  0  0  0  0
    4.4232    0.1963    1.5495 C   0  0  0  0  0  0  0  0  0  0  0  0
    7.8155    0.7287    0.0591 N   0  0  0  0  0  0  0  0  0  0  0  0
    8.6943   -0.2836    0.4266 C   0  0  0  0  0  0  0  0  0  0  0  0
    8.4321   -1.2550    1.1389 O   0  0  0  0  0  0  0  0  0  0  0  0
   10.0862   -0.1351   -0.2493 C   0  0  1  0  0  0  0  0  0  0  0  0
    9.9892   -0.3012   -1.7775 C   0  0  0  0  0  0  0  0  0  0  0  0
    9.1355   -1.4737   -2.2971 C   0  0  0  0  0  0  0  0  0  0  0  0
    9.7079   -2.8601   -2.0106 C   0  0  0  0  0  0  0  0  0  0  0  0
    9.6322   -3.1867   -0.6063 N   0  0  0  0  0  0  0  0  0  0  0  0
   10.6937   -3.6398    0.1155 C   0  0  0  0  0  0  0  0  0  0  0  0
   11.8225   -3.8286   -0.3091 O   0  0  0  0  0  0  0  0  0  0  0  0
   10.3674   -3.8340    1.4210 N   0  0  0  0  0  0  0  0  0  0  0  0
   10.6075    1.1685    0.2203 N   0  0  0  0  0  0  0  0  0  0  0  0
   11.6972    1.8011   -0.3412 C   0  0  0  0  0  0  0  0  0  0  0  0
   12.0782    1.5408   -1.4844 O   0  0  0  0  0  0  0  0  0  0  0  0
   12.2736    3.0316    0.4399 C   0  0  1  0  0  0  0  0  0  0  0  0
   12.9222    2.7864    1.8309 C   0  0  0  0  0  0  0  0  0  0  0  0
   11.9327    2.2722    2.8856 C   0  0  0  0  0  0  0  0  0  0  0  0
   13.5349    4.0861    2.3853 C   0  0  0  0  0  0  0  0  0  0  0  0
   13.1352    3.7106   -0.5538 N   0  0  0  0  0  0  0  0  0  0  0  0
   14.4417    3.3189   -0.7941 C   0  0  0  0  0  0  0  0  0  0  0  0
   15.1523    2.7447    0.0217 O   0  0  0  0  0  0  0  0  0  0  0  0
   14.9174    3.6998   -2.1862 C   0  0  0  0  0  0  0  0  0  0  0  0
   16.3425    3.2431   -2.5176 C   0  0  0  0  0  0  0  0  0  0  0  0
   16.4725    1.7238   -2.7129 C   0  0  0  0  0  0  0  0  0  0  0  0
   17.1145    0.9972   -1.5225 C   0  0  0  0  0  0  0  0  0  0  0  0
   16.2766   -0.1943   -1.0444 C   0  0  0  0  0  0  0  0  0  0  0  0
   16.9881   -0.9739   -0.0475 N   0  0  0  0  0  0  0  0  0  0  0  0
   16.8050   -0.8828    1.2982 C   0  0  0  0  0  0  0  0  0  0  0  0
   15.9952   -0.2392    1.9371 O   0  0  0  0  0  0  0  0  0  0  0  0
   17.7876   -1.7806    1.9198 C   0  0  0  0  0  0  0  0  0  0  0  0
   18.4735   -2.3801    0.9439 C   0  0  0  0  0  0  0  0  0  0  0  0
   17.9721   -1.8618   -0.3341 C   0  0  0  0  0  0  0  0  0  0  0  0
   18.4102   -2.2004   -1.4197 O   0  0  0  0  0  0  0  0  0  0  0  0
   -5.9339   -2.7459   -3.5282 H   0  0  0  0  0  0  0  0  0  0  0  0
   -7.1755   -1.6861   -4.2320 H   0  0  0  0  0  0  0  0  0  0  0  0
   -5.4689   -1.4635   -4.6517 H   0  0  0  0  0  0  0  0  0  0  0  0
   -6.2176    0.2657   -3.0016 H   0  0  0  0  0  0  0  0  0  0  0  0
   -4.8882   -0.7315   -2.4570 H   0  0  0  0  0  0  0  0  0  0  0  0
   -6.8124   -2.2335   -1.3286 H   0  0  0  0  0  0  0  0  0  0  0  0
   -8.6035   -0.9916   -2.6369 H   0  0  0  0  0  0  0  0  0  0  0  0
   -8.9184   -1.1733   -0.9323 H   0  0  0  0  0  0  0  0  0  0  0  0
   -8.3455    0.3872   -1.5686 H   0  0  0  0  0  0  0  0  0  0  0  0
   -6.2824    0.5644   -0.2554 H   0  0  0  0  0  0  0  0  0  0  0  0
   -6.1587   -0.4869    2.0434 H   0  0  0  0  0  0  0  0  0  0  0  0
   -8.3551   -0.5884    2.6926 H   0  0  0  0  0  0  0  0  0  0  0  0
   -8.9592   -1.1374    1.1377 H   0  0  0  0  0  0  0  0  0  0  0  0
   -9.4647    3.0999    0.2370 H   0  0  0  0  0  0  0  0  0  0  0  0
  -11.0300    2.3422   -0.1011 H   0  0  0  0  0  0  0  0  0  0  0  0
  -11.5975    4.1446    1.4425 H   0  0  0  0  0  0  0  0  0  0  0  0
  -10.2027    3.7626    2.4830 H   0  0  0  0  0  0  0  0  0  0  0  0
  -12.0171    2.5190    3.5401 H   0  0  0  0  0  0  0  0  0  0  0  0
  -12.6550    2.0423    1.9571 H   0  0  0  0  0  0  0  0  0  0  0  0
  -10.0967    1.1156    3.3492 H   0  0  0  0  0  0  0  0  0  0  0  0
  -12.2600   -0.1934    3.3998 H   0  0  0  0  0  0  0  0  0  0  0  0
  -11.8488   -0.2081    0.4244 H   0  0  0  0  0  0  0  0  0  0  0  0
  -11.1408   -2.5601    0.8756 H   0  0  0  0  0  0  0  0  0  0  0  0
  -12.6300   -2.8243    1.8173 H   0  0  0  0  0  0  0  0  0  0  0  0
  -12.7128   -2.5167    0.0832 H   0  0  0  0  0  0  0  0  0  0  0  0
  -13.9764   -0.8354   -0.6367 H   0  0  0  0  0  0  0  0  0  0  0  0
  -16.2640    0.2404    0.9649 H   0  0  0  0  0  0  0  0  0  0  0  0
  -17.5588   -1.7424    0.2221 H   0  0  0  0  0  0  0  0  0  0  0  0
  -16.1178   -2.4010   -0.5842 H   0  0  0  0  0  0  0  0  0  0  0  0
  -16.1433   -2.2229    1.1725 H   0  0  0  0  0  0  0  0  0  0  0  0
  -17.4553    0.1178   -1.3091 H   0  0  0  0  0  0  0  0  0  0  0  0
  -14.9146    2.1676    0.3708 H   0  0  0  0  0  0  0  0  0  0  0  0
  -14.7552    4.5839    0.0557 H   0  0  0  0  0  0  0  0  0  0  0  0
  -15.9559    5.7024   -1.8024 H   0  0  0  0  0  0  0  0  0  0  0  0
  -17.3330    4.3547   -3.3670 H   0  0  0  0  0  0  0  0  0  0  0  0
  -17.5015    1.9107   -3.0871 H   0  0  0  0  0  0  0  0  0  0  0  0
  -15.0597    0.3115   -2.6647 H   0  0  0  0  0  0  0  0  0  0  0  0
  -10.0570   -2.5150    4.5950 H   0  0  0  0  0  0  0  0  0  0  0  0
  -11.7989   -2.1699    4.4984 H   0  0  0  0  0  0  0  0  0  0  0  0
  -10.6453   -0.8941    5.0283 H   0  0  0  0  0  0  0  0  0  0  0  0
   -6.5155   -3.8993    2.7148 H   0  0  0  0  0  0  0  0  0  0  0  0
   -7.1404   -2.4036    3.4456 H   0  0  0  0  0  0  0  0  0  0  0  0
   -5.4230   -2.5191    2.9442 H   0  0  0  0  0  0  0  0  0  0  0  0
   -3.0048    0.5489    0.1380 H   0  0  0  0  0  0  0  0  0  0  0  0
   -4.5199    1.2998    0.6350 H   0  0  0  0  0  0  0  0  0  0  0  0
   -3.7491    0.0909    1.6996 H   0  0  0  0  0  0  0  0  0  0  0  0
   -2.6731   -1.9221    1.4343 H   0  0  0  0  0  0  0  0  0  0  0  0
   -2.5164   -4.2086   -0.5842 H   0  0  0  0  0  0  0  0  0  0  0  0
   -0.6945   -5.1296    0.8963 H   0  0  0  0  0  0  0  0  0  0  0  0
   -0.5972   -3.5611    1.7154 H   0  0  0  0  0  0  0  0  0  0  0  0
   -0.1970   -3.7073   -0.0035 H   0  0  0  0  0  0  0  0  0  0  0  0
   -3.0474   -4.1448    2.4445 H   0  0  0  0  0  0  0  0  0  0  0  0
   -4.2833   -4.4144    1.2076 H   0  0  0  0  0  0  0  0  0  0  0  0
   -2.9971   -5.5948    1.4257 H   0  0  0  0  0  0  0  0  0  0  0  0
   -0.8314   -1.2354    0.3165 H   0  0  0  0  0  0  0  0  0  0  0  0
   -0.1430   -0.8486   -3.2193 H   0  0  0  0  0  0  0  0  0  0  0  0
   -0.7195    1.2975   -1.1187 H   0  0  0  0  0  0  0  0  0  0  0  0
   -2.8101    0.7037   -2.3021 H   0  0  0  0  0  0  0  0  0  0  0  0
   -1.9863    0.8331   -3.8677 H   0  0  0  0  0  0  0  0  0  0  0  0
   -2.2176    2.2674   -2.8498 H   0  0  0  0  0  0  0  0  0  0  0  0
    1.4077    1.7038   -2.4291 H   0  0  0  0  0  0  0  0  0  0  0  0
    0.5148    1.4709   -3.9329 H   0  0  0  0  0  0  0  0  0  0  0  0
    0.1430    2.8452   -2.8785 H   0  0  0  0  0  0  0  0  0  0  0  0
    0.8830   -2.9959   -1.7427 H   0  0  0  0  0  0  0  0  0  0  0  0
    1.8170   -2.1501   -3.0066 H   0  0  0  0  0  0  0  0  0  0  0  0
    2.5184   -2.3894   -1.3918 H   0  0  0  0  0  0  0  0  0  0  0  0
    1.8444    0.7179    1.9361 H   0  0  0  0  0  0  0  0  0  0  0  0
    1.9157    2.3158    1.2104 H   0  0  0  0  0  0  0  0  0  0  0  0
    3.7743    2.6821   -0.6742 H   0  0  0  0  0  0  0  0  0  0  0  0
    6.1745    2.4278   -1.0739 H   0  0  0  0  0  0  0  0  0  0  0  0
    6.3246   -0.7061    1.8919 H   0  0  0  0  0  0  0  0  0  0  0  0
    3.9379   -0.4435    2.2813 H   0  0  0  0  0  0  0  0  0  0  0  0
    8.1902    1.4145   -0.5902 H   0  0  0  0  0  0  0  0  0  0  0  0
   10.7627   -0.8823    0.1732 H   0  0  0  0  0  0  0  0  0  0  0  0
    9.5892    0.6258   -2.2120 H   0  0  0  0  0  0  0  0  0  0  0  0
   10.9980   -0.4221   -2.1929 H   0  0  0  0  0  0  0  0  0  0  0  0
    8.1107   -1.3976   -1.9165 H   0  0  0  0  0  0  0  0  0  0  0  0
    9.0633   -1.3701   -3.3906 H   0  0  0  0  0  0  0  0  0  0  0  0
   10.7384   -2.9451   -2.3775 H   0  0  0  0  0  0  0  0  0  0  0  0
    9.1029   -3.6134   -2.5324 H   0  0  0  0  0  0  0  0  0  0  0  0
    8.7255   -3.2648   -0.1622 H   0  0  0  0  0  0  0  0  0  0  0  0
   11.1784   -4.0212    1.9978 H   0  0  0  0  0  0  0  0  0  0  0  0
    9.7365   -3.1362    1.8004 H   0  0  0  0  0  0  0  0  0  0  0  0
   10.4912    1.2982    1.2102 H   0  0  0  0  0  0  0  0  0  0  0  0
   11.4251    3.7185    0.5742 H   0  0  0  0  0  0  0  0  0  0  0  0
   13.7083    2.0278    1.7521 H   0  0  0  0  0  0  0  0  0  0  0  0
   10.9896    2.8293    2.8580 H   0  0  0  0  0  0  0  0  0  0  0  0
   11.7226    1.2076    2.7497 H   0  0  0  0  0  0  0  0  0  0  0  0
   12.3441    2.3720    3.8983 H   0  0  0  0  0  0  0  0  0  0  0  0
   12.7662    4.8569    2.5073 H   0  0  0  0  0  0  0  0  0  0  0  0
   14.3147    4.4874    1.7334 H   0  0  0  0  0  0  0  0  0  0  0  0
   13.9958    3.9082    3.3627 H   0  0  0  0  0  0  0  0  0  0  0  0
   12.6338    3.9670   -1.3964 H   0  0  0  0  0  0  0  0  0  0  0  0
   14.2179    3.2761   -2.9202 H   0  0  0  0  0  0  0  0  0  0  0  0
   14.8608    4.7931   -2.2690 H   0  0  0  0  0  0  0  0  0  0  0  0
   16.6079    3.7227   -3.4723 H   0  0  0  0  0  0  0  0  0  0  0  0
   17.0537    3.6204   -1.7736 H   0  0  0  0  0  0  0  0  0  0  0  0
   15.5071    1.2823   -2.9879 H   0  0  0  0  0  0  0  0  0  0  0  0
   17.1315    1.5637   -3.5775 H   0  0  0  0  0  0  0  0  0  0  0  0
   17.2988    1.6718   -0.6785 H   0  0  0  0  0  0  0  0  0  0  0  0
   18.1034    0.6390   -1.8329 H   0  0  0  0  0  0  0  0  0  0  0  0
   16.0555   -0.8557   -1.8899 H   0  0  0  0  0  0  0  0  0  0  0  0
   15.3259    0.1493   -0.6222 H   0  0  0  0  0  0  0  0  0  0  0  0
   17.8831   -1.9069    2.9841 H   0  0  0  0  0  0  0  0  0  0  0  0
   19.2631   -3.1062    1.0260 H   0  0  0  0  0  0  0  0  0  0  0  0
  1  2  1  0
  2  3  1  0
  3  4  1  0
  3  5  1  0
  5  6  1  0
  6  7  1  0
  7  8  1  0
  8  9  2  0
  8 10  1  0
 10 11  1  0
 11 12  1  0
 12 13  1  0
 13 14  1  0
 14 15  1  0
 15 16  1  0
 16 17  1  0
 16 18  1  0
 18 19  2  0
 18 20  1  0
 20 21  1  0
 21 22  1  0
 21 23  1  0
 23 24  1  0
 24 25  2  0
 25 26  1  0
 26 27  2  0
 27 28  1  0
 28 29  2  0
 23 30  1  0
 15 31  1  0
 31 32  1  0
  6 33  1  0
 33 34  1  0
  5 35  1  0
 35 36  1  0
 35 37  1  0
 37 38  2  0
 37 39  1  0
 39 40  1  0
 40 41  1  0
 40 42  1  0
 39 43  1  0
 43 44  1  0
 44 45  2  0
 44 46  1  0
 46 47  1  0
 47 48  1  0
 47 49  1  0
 46 50  1  0
 50 51  1  0
 50 52  1  0
 52 53  2  0
 52 54  1  0
 54 55  1  0
 55 56  1  0
 56 57  1  0
 57 58  2  0
 58 59  1  0
 59 60  2  0
 60 61  1  0
 59 62  1  0
 62 63  1  0
 63 64  2  0
 63 65  1  0
 65 66  1  0
 66 67  1  0
 67 68  1  0
 68 69  1  0
 69 70  1  0
 70 71  2  0
 70 72  1  0
 65 73  1  0
 73 74  1  0
 74 75  2  0
 74 76  1  0
 76 77  1  0
 77 78  1  0
 77 79  1  0
 76 80  1  0
 80 81  1  0
 81 82  2  0
 81 83  1  0
 83 84  1  0
 84 85  1  0
 85 86  1  0
 86 87  1  0
 87 88  1  0
 88 89  1  0
 89 90  2  0
 89 91  1  0
 91 92  2  0
 92 93  1  0
 93 94  2  0
 14 10  1  0
 29 24  1  0
 61 56  2  0
 93 88  1  0
  1 95  1  0
  1 96  1  0
  1 97  1  0
  2 98  1  0
  2 99  1  0
  3100  1  1
  4101  1  0
  4102  1  0
  4103  1  0
  5104  1  6
  6105  1  1
  7106  1  0
  7107  1  0
 11108  1  0
 11109  1  0
 12110  1  0
 12111  1  0
 13112  1  0
 13113  1  0
 14114  1  1
 15115  1  1
 16116  1  6
 17117  1  0
 17118  1  0
 17119  1  0
 20120  1  0
 21121  1  1
 22122  1  0
 22123  1  0
 22124  1  0
 23125  1  6
 25126  1  0
 26127  1  0
 27128  1  0
 28129  1  0
 29130  1  0
 30131  1  0
 32132  1  0
 32133  1  0
 32134  1  0
 34135  1  0
 34136  1  0
 34137  1  0
 36138  1  0
 36139  1  0
 36140  1  0
 39141  1  1
 40142  1  0
 41143  1  0
 41144  1  0
 41145  1  0
 42146  1  0
 42147  1  0
 42148  1  0
 43149  1  0
 46150  1  6
 47151  1  0
 48152  1  0
 48153  1  0
 48154  1  0
 49155  1  0
 49156  1  0
 49157  1  0
 51158  1  0
 51159  1  0
 51160  1  0
 55161  1  0
 55162  1  0
 57163  1  0
 58164  1  0
 60165  1  0
 61166  1  0
 62167  1  0
 65168  1  1
 66169  1  0
 66170  1  0
 67171  1  0
 67172  1  0
 68173  1  0
 68174  1  0
 69175  1  0
 72176  1  0
 72177  1  0
 73178  1  0
 76179  1  1
 77180  1  0
 78181  1  0
 78182  1  0
 78183  1  0
 79184  1  0
 79185  1  0
 79186  1  0
 80187  1  0
 83188  1  0
 83189  1  0
 84190  1  0
 84191  1  0
 85192  1  0
 85193  1  0
 86194  1  0
 86195  1  0
 87196  1  0
 87197  1  0
 91198  1  0
 92199  1  0
M  END
$$$$

     RDKit          3D

199202  0  0  0  0  0  0  0  0999 V2000
   -4.1005    2.3568    4.3030 C   0  0  0  0  0  0  0  0  0  0  0  0
   -3.8588    2.1871    2.8088 C   0  0  0  0  0  0  0  0  0  0  0  0
   -4.3436    3.3349    1.8669 C   0  0  2  0  0  0  0  0  0  0  0  0
   -5.0101    4.5006    2.6062 C   0  0  0  0  0  0  0  0  0  0  0  0
   -5.1545    2.7460    0.6455 C   0  0  1  0  0  0  0  0  0  0  0  0
   -6.6714    2.4380    0.8748 C   0  0  1  0  0  0  0  0  0  0  0  0
   -7.0762    1.3170   -0.1010 C   0  0  0  0  0  0  0  0  0  0  0  0
   -8.5750    1.1853   -0.2927 C   0  0  0  0  0  0  0  0  0  0  0  0
   -9.1484    1.9279   -1.0969 O   0  0  0  0  0  0  0  0  0  0  0  0
   -9.2430    0.2522    0.4679 N   0  0  0  0  0  0  0  0  0  0  0  0
   -8.6260   -0.6828    1.3969 C   0  0  0  0  0  0  0  0  0  0  0  0
   -9.7696   -1.0945    2.2968 C   0  0  0  0  0  0  0  0  0  0  0  0
  -10.9356   -1.1738    1.3275 C   0  0  0  0  0  0  0  0  0  0  0  0
  -10.6789   -0.0569    0.2890 C   0  0  1  0  0  0  0  0  0  0  0  0
  -11.6563    1.1605    0.3687 C   0  0  1  0  0  0  0  0  0  0  0  0
  -13.1547    0.7799    0.4410 C   0  0  1  0  0  0  0  0  0  0  0  0
  -14.0754    1.9591    0.1042 C   0  0  0  0  0  0  0  0  0  0  0  0
  -13.5108   -0.3700   -0.4868 C   0  0  0  0  0  0  0  0  0  0  0  0
  -13.3298   -0.3528   -1.6990 O   0  0  0  0  0  0  0  0  0  0  0  0
  -14.0705   -1.4535    0.1555 N   0  0  0  0  0  0  0  0  0  0  0  0
  -14.5531   -2.6602   -0.5446 C   0  0  2  0  0  0  0  0  0  0  0  0
  -15.4837   -3.4127    0.4118 C   0  0  0  0  0  0  0  0  0  0  0  0
  -13.3766   -3.5621   -1.0586 C   0  0  1  0  0  0  0  0  0  0  0  0
  -13.8443   -4.8403   -1.7286 C   0  0  0  0  0  0  0  0  0  0  0  0
  -13.5850   -6.0880   -1.1407 C   0  0  0  0  0  0  0  0  0  0  0  0
  -14.0569   -7.2652   -1.7287 C   0  0  0  0  0  0  0  0  0  0  0  0
  -14.7856   -7.2110   -2.9162 C   0  0  0  0  0  0  0  0  0  0  0  0
  -15.0519   -5.9785   -3.5123 C   0  0  0  0  0  0  0  0  0  0  0  0
  -14.5767   -4.8022   -2.9270 C   0  0  0  0  0  0  0  0  0  0  0  0
  -12.5207   -2.9023   -1.9945 O   0  0  0  0  0  0  0  0  0  0  0  0
  -11.3835    1.9224    1.5706 O   0  0  0  0  0  0  0  0  0  0  0  0
  -11.0757    3.2903    1.2954 C   0  0  0  0  0  0  0  0  0  0  0  0
   -6.8312    1.9786    2.2258 O   0  0  0  0  0  0  0  0  0  0  0  0
   -7.9957    2.4667    2.8837 C   0  0  0  0  0  0  0  0  0  0  0  0
   -4.8749    3.4551   -0.6415 N   0  0  0  0  0  0  0  0  0  0  0  0
   -5.4394    4.7746   -0.8641 C   0  0  0  0  0  0  0  0  0  0  0  0
   -3.6278    3.2240   -1.2232 C   0  0  0  0  0  0  0  0  0  0  0  0
   -2.7290    4.0684   -1.2465 O   0  0  0  0  0  0  0  0  0  0  0  0
   -3.4840    1.8462   -1.9090 C   0  0  1  0  0  0  0  0  0  0  0  0
   -3.9246    1.9150   -3.3894 C   0  0  0  0  0  0  0  0  0  0  0  0
   -3.9222    0.5196   -4.0215 C   0  0  0  0  0  0  0  0  0  0  0  0
   -3.0868    2.8702   -4.2415 C   0  0  0  0  0  0  0  0  0  0  0  0
   -2.1049    1.4018   -1.7457 N   0  0  0  0  0  0  0  0  0  0  0  0
   -1.7697    0.5939   -0.6760 C   0  0  0  0  0  0  0  0  0  0  0  0
   -2.6446    0.1283    0.0586 O   0  0  0  0  0  0  0  0  0  0  0  0
   -0.2684    0.2259   -0.5477 C   0  0  1  0  0  0  0  0  0  0  0  0
    0.7829    1.3759   -0.4611 C   0  0  0  0  0  0  0  0  0  0  0  0
    1.2802    1.8295   -1.8428 C   0  0  0  0  0  0  0  0  0  0  0  0
    0.3403    2.5954    0.3484 C   0  0  0  0  0  0  0  0  0  0  0  0
   -0.0702   -0.7519    0.5546 N   0  0  0  0  0  0  0  0  0  0  0  0
   -0.3620   -0.3595    1.9267 C   0  0  0  0  0  0  0  0  0  0  0  0
    0.5754   -1.9482    0.2873 C   0  0  0  0  0  0  0  0  0  0  0  0
    0.8690   -2.3319   -0.8384 O   0  0  0  0  0  0  0  0  0  0  0  0
    0.9137   -2.6087    1.4293 O   0  0  0  0  0  0  0  0  0  0  0  0
    1.9278   -3.6088    1.2638 C   0  0  0  0  0  0  0  0  0  0  0  0
    3.2668   -2.9210    1.1695 C   0  0  0  0  0  0  0  0  0  0  0  0
    3.9034   -2.8009   -0.0687 C   0  0  0  0  0  0  0  0  0  0  0  0
    5.0328   -1.9911   -0.2148 C   0  0  0  0  0  0  0  0  0  0  0  0
    5.5480   -1.2886    0.8779 C   0  0  0  0  0  0  0  0  0  0  0  0
    4.9531   -1.4679    2.1330 C   0  0  0  0  0  0  0  0  0  0  0  0
    3.8198   -2.2745    2.2782 C   0  0  0  0  0  0  0  0  0  0  0  0
    6.5965   -0.3476    0.7873 N   0  0  0  0  0  0  0  0  0  0  0  0
    7.2750    0.0346   -0.3571 C   0  0  0  0  0  0  0  0  0  0  0  0
    7.1223   -0.4752   -1.4713 O   0  0  0  0  0  0  0  0  0  0  0  0
    8.2026    1.2803   -0.2114 C   0  0  1  0  0  0  0  0  0  0  0  0
    8.9053    1.4512    1.1439 C   0  0  0  0  0  0  0  0  0  0  0  0
    9.9839    2.5432    1.1411 C   0  0  0  0  0  0  0  0  0  0  0  0
   10.8861    2.4786    2.3696 C   0  0  0  0  0  0  0  0  0  0  0  0
   11.5423    1.1952    2.4899 N   0  0  0  0  0  0  0  0  0  0  0  0
   12.4199    0.9760    3.5098 C   0  0  0  0  0  0  0  0  0  0  0  0
   12.6524    1.7500    4.4315 O   0  0  0  0  0  0  0  0  0  0  0  0
   13.0208   -0.2320    3.4129 N   0  0  0  0  0  0  0  0  0  0  0  0
    9.0944    1.2285   -1.3744 N   0  0  0  0  0  0  0  0  0  0  0  0
   10.1755    0.3629   -1.4387 C   0  0  0  0  0  0  0  0  0  0  0  0
   10.6898   -0.1295   -0.4385 O   0  0  0  0  0  0  0  0  0  0  0  0
   10.6445    0.0440   -2.8875 C   0  0  1  0  0  0  0  0  0  0  0  0
   11.4650    1.1715   -3.5702 C   0  0  0  0  0  0  0  0  0  0  0  0
   11.9538    0.7394   -4.9614 C   0  0  0  0  0  0  0  0  0  0  0  0
   10.6642    2.4712   -3.7276 C   0  0  0  0  0  0  0  0  0  0  0  0
   11.2631   -1.2879   -2.8387 N   0  0  0  0  0  0  0  0  0  0  0  0
   12.5645   -1.5015   -2.4265 C   0  0  0  0  0  0  0  0  0  0  0  0
   13.4252   -0.6308   -2.3775 O   0  0  0  0  0  0  0  0  0  0  0  0
   12.8135   -2.9539   -2.0485 C   0  0  0  0  0  0  0  0  0  0  0  0
   14.2792   -3.3039   -1.7854 C   0  0  0  0  0  0  0  0  0  0  0  0
   14.7423   -3.1210   -0.3363 C   0  0  0  0  0  0  0  0  0  0  0  0
   14.8736   -1.6562    0.0967 C   0  0  0  0  0  0  0  0  0  0  0  0
   15.5152   -1.4890    1.4752 C   0  0  0  0  0  0  0  0  0  0  0  0
   16.9067   -1.8912    1.5055 N   0  0  0  0  0  0  0  0  0  0  0  0
   17.3602   -3.0817    1.9642 C   0  0  0  0  0  0  0  0  0  0  0  0
   16.7381   -4.0096    2.4475 O   0  0  0  0  0  0  0  0  0  0  0  0
   18.8159   -3.0955    1.7698 C   0  0  0  0  0  0  0  0  0  0  0  0
   19.1579   -1.9321    1.2214 C   0  0  0  0  0  0  0  0  0  0  0  0
   17.9379   -1.1410    1.0465 C   0  0  0  0  0  0  0  0  0  0  0  0
   17.9270   -0.0211    0.5738 O   0  0  0  0  0  0  0  0  0  0  0  0
   -5.1650    2.4882    4.5253 H   0  0  0  0  0  0  0  0  0  0  0  0
   -3.5436    3.2075    4.7033 H   0  0  0  0  0  0  0  0  0  0  0  0
   -3.7629    1.4631    4.8405 H   0  0  0  0  0  0  0  0  0  0  0  0
   -2.7793    2.0598    2.6549 H   0  0  0  0  0  0  0  0  0  0  0  0
   -4.3059    1.2301    2.5137 H   0  0  0  0  0  0  0  0  0  0  0  0
   -3.4240    3.7686    1.4505 H   0  0  0  0  0  0  0  0  0  0  0  0
   -5.2765    5.3213    1.9370 H   0  0  0  0  0  0  0  0  0  0  0  0
   -4.3252    4.9291    3.3448 H   0  0  0  0  0  0  0  0  0  0  0  0
   -5.9240    4.2103    3.1311 H   0  0  0  0  0  0  0  0  0  0  0  0
   -4.6933    1.7648    0.5013 H   0  0  0  0  0  0  0  0  0  0  0  0
   -7.2683    3.3449    0.7093 H   0  0  0  0  0  0  0  0  0  0  0  0
   -6.6835    1.5220   -1.1032 H   0  0  0  0  0  0  0  0  0  0  0  0
   -6.6405    0.3588    0.1967 H   0  0  0  0  0  0  0  0  0  0  0  0
   -7.8000   -0.2570    1.9626 H   0  0  0  0  0  0  0  0  0  0  0  0
   -8.2480   -1.5321    0.8152 H   0  0  0  0  0  0  0  0  0  0  0  0
   -9.5779   -2.0319    2.8252 H   0  0  0  0  0  0  0  0  0  0  0  0
   -9.9695   -0.3158    3.0395 H   0  0  0  0  0  0  0  0  0  0  0  0
  -10.9178   -2.1464    0.8176 H   0  0  0  0  0  0  0  0  0  0  0  0
  -11.8886   -1.1120    1.8505 H   0  0  0  0  0  0  0  0  0  0  0  0
  -10.7727   -0.4895   -0.7143 H   0  0  0  0  0  0  0  0  0  0  0  0
  -11.4899    1.7829   -0.5190 H   0  0  0  0  0  0  0  0  0  0  0  0
  -13.3949    0.5006    1.4798 H   0  0  0  0  0  0  0  0  0  0  0  0
  -13.9282    2.3011   -0.9259 H   0  0  0  0  0  0  0  0  0  0  0  0
  -13.8997    2.8029    0.7739 H   0  0  0  0  0  0  0  0  0  0  0  0
  -15.1256    1.6714    0.2046 H   0  0  0  0  0  0  0  0  0  0  0  0
  -14.1170   -1.4480    1.1697 H   0  0  0  0  0  0  0  0  0  0  0  0
  -15.1336   -2.3015   -1.4034 H   0  0  0  0  0  0  0  0  0  0  0  0
  -16.2750   -2.7524    0.7844 H   0  0  0  0  0  0  0  0  0  0  0  0
  -14.9330   -3.7873    1.2855 H   0  0  0  0  0  0  0  0  0  0  0  0
  -15.9688   -4.2596   -0.0796 H   0  0  0  0  0  0  0  0  0  0  0  0
  -12.7339   -3.8106   -0.2029 H   0  0  0  0  0  0  0  0  0  0  0  0
  -13.0168   -6.1534   -0.2168 H   0  0  0  0  0  0  0  0  0  0  0  0
  -13.8471   -8.2256   -1.2646 H   0  0  0  0  0  0  0  0  0  0  0  0
  -15.1453   -8.1272   -3.3736 H   0  0  0  0  0  0  0  0  0  0  0  0
  -15.6131   -5.9366   -4.4435 H   0  0  0  0  0  0  0  0  0  0  0  0
  -14.7809   -3.8500   -3.4168 H   0  0  0  0  0  0  0  0  0  0  0  0
  -12.8437   -1.9849   -2.1181 H   0  0  0  0  0  0  0  0  0  0  0  0
  -10.0791    3.3780    0.8617 H   0  0  0  0  0  0  0  0  0  0  0  0
  -11.0888    3.8381    2.2390 H   0  0  0  0  0  0  0  0  0  0  0  0
  -11.8035    3.7380    0.6186 H   0  0  0  0  0  0  0  0  0  0  0  0
   -8.8859    1.9957    2.4744 H   0  0  0  0  0  0  0  0  0  0  0  0
   -7.9295    2.1946    3.9411 H   0  0  0  0  0  0  0  0  0  0  0  0
   -8.0786    3.5578    2.8082 H   0  0  0  0  0  0  0  0  0  0  0  0
   -5.2194    5.4543   -0.0422 H   0  0  0  0  0  0  0  0  0  0  0  0
   -5.0185    5.2156   -1.7800 H   0  0  0  0  0  0  0  0  0  0  0  0
   -6.5221    4.6724   -1.0020 H   0  0  0  0  0  0  0  0  0  0  0  0
   -4.1470    1.1303   -1.4123 H   0  0  0  0  0  0  0  0  0  0  0  0
   -4.9588    2.2840   -3.4129 H   0  0  0  0  0  0  0  0  0  0  0  0
   -4.5769   -0.1610   -3.4654 H   0  0  0  0  0  0  0  0  0  0  0  0
   -4.2846    0.5574   -5.0553 H   0  0  0  0  0  0  0  0  0  0  0  0
   -2.9165    0.0862   -4.0353 H   0  0  0  0  0  0  0  0  0  0  0  0
   -3.4641    2.9068   -5.2707 H   0  0  0  0  0  0  0  0  0  0  0  0
   -2.0347    2.5711   -4.2817 H   0  0  0  0  0  0  0  0  0  0  0  0
   -3.1341    3.8920   -3.8488 H   0  0  0  0  0  0  0  0  0  0  0  0
   -1.4038    2.0340   -2.1012 H   0  0  0  0  0  0  0  0  0  0  0  0
   -0.0651   -0.3166   -1.4794 H   0  0  0  0  0  0  0  0  0  0  0  0
    1.6734    0.9707    0.0419 H   0  0  0  0  0  0  0  0  0  0  0  0
    1.5351    0.9728   -2.4783 H   0  0  0  0  0  0  0  0  0  0  0  0
    2.1879    2.4381   -1.7377 H   0  0  0  0  0  0  0  0  0  0  0  0
    0.5473    2.4425   -2.3770 H   0  0  0  0  0  0  0  0  0  0  0  0
    0.0042    2.3241    1.3514 H   0  0  0  0  0  0  0  0  0  0  0  0
    1.1789    3.2924    0.4672 H   0  0  0  0  0  0  0  0  0  0  0  0
   -0.4626    3.1458   -0.1490 H   0  0  0  0  0  0  0  0  0  0  0  0
   -1.1117    0.4331    1.9666 H   0  0  0  0  0  0  0  0  0  0  0  0
   -0.7412   -1.2170    2.4924 H   0  0  0  0  0  0  0  0  0  0  0  0
    0.5615   -0.0041    2.3906 H   0  0  0  0  0  0  0  0  0  0  0  0
    1.7221   -4.2575    0.4020 H   0  0  0  0  0  0  0  0  0  0  0  0
    1.9077   -4.2543    2.1478 H   0  0  0  0  0  0  0  0  0  0  0  0
    3.4864   -3.2791   -0.9521 H   0  0  0  0  0  0  0  0  0  0  0  0
    5.4569   -1.9047   -1.2115 H   0  0  0  0  0  0  0  0  0  0  0  0
    5.3360   -0.9482    3.0107 H   0  0  0  0  0  0  0  0  0  0  0  0
    3.3386   -2.3474    3.2514 H   0  0  0  0  0  0  0  0  0  0  0  0
    6.8447    0.1043    1.6566 H   0  0  0  0  0  0  0  0  0  0  0  0
    7.5580    2.1520   -0.3788 H   0  0  0  0  0  0  0  0  0  0  0  0
    9.3069    0.4874    1.4668 H   0  0  0  0  0  0  0  0  0  0  0  0
    8.1613    1.7154    1.9068 H   0  0  0  0  0  0  0  0  0  0  0  0
   10.6236    2.4686    0.2584 H   0  0  0  0  0  0  0  0  0  0  0  0
    9.5041    3.5273    1.0945 H   0  0  0  0  0  0  0  0  0  0  0  0
   11.6620    3.2521    2.3021 H   0  0  0  0  0  0  0  0  0  0  0  0
   10.3161    2.6628    3.2848 H   0  0  0  0  0  0  0  0  0  0  0  0
   11.7848    0.7141    1.6280 H   0  0  0  0  0  0  0  0  0  0  0  0
   12.3768   -0.9957    3.2249 H   0  0  0  0  0  0  0  0  0  0  0  0
   13.6099   -0.4139    4.2162 H   0  0  0  0  0  0  0  0  0  0  0  0
    8.6023    1.3726   -2.2569 H   0  0  0  0  0  0  0  0  0  0  0  0
    9.7310   -0.1192   -3.4798 H   0  0  0  0  0  0  0  0  0  0  0  0
   12.3390    1.4207   -2.9556 H   0  0  0  0  0  0  0  0  0  0  0  0
   11.1151    0.4227   -5.5918 H   0  0  0  0  0  0  0  0  0  0  0  0
   12.4723    1.5608   -5.4658 H   0  0  0  0  0  0  0  0  0  0  0  0
   12.6601   -0.0929   -4.9004 H   0  0  0  0  0  0  0  0  0  0  0  0
   11.2275    3.2121   -4.3079 H   0  0  0  0  0  0  0  0  0  0  0  0
    9.7129    2.2911   -4.2438 H   0  0  0  0  0  0  0  0  0  0  0  0
   10.4514    2.9311   -2.7591 H   0  0  0  0  0  0  0  0  0  0  0  0
   10.6142   -2.0327   -2.6062 H   0  0  0  0  0  0  0  0  0  0  0  0
   12.4615   -3.5622   -2.8896 H   0  0  0  0  0  0  0  0  0  0  0  0
   12.1951   -3.2025   -1.1783 H   0  0  0  0  0  0  0  0  0  0  0  0
   14.9434   -2.7596   -2.4694 H   0  0  0  0  0  0  0  0  0  0  0  0
   14.4038   -4.3689   -2.0231 H   0  0  0  0  0  0  0  0  0  0  0  0
   15.7163   -3.6145   -0.2496 H   0  0  0  0  0  0  0  0  0  0  0  0
   14.0570   -3.6451    0.3414 H   0  0  0  0  0  0  0  0  0  0  0  0
   15.4594   -1.1033   -0.6505 H   0  0  0  0  0  0  0  0  0  0  0  0
   13.8744   -1.2039    0.1342 H   0  0  0  0  0  0  0  0  0  0  0  0
   14.9604   -2.0696    2.2222 H   0  0  0  0  0  0  0  0  0  0  0  0
   15.4717   -0.4334    1.7601 H   0  0  0  0  0  0  0  0  0  0  0  0
   19.4417   -3.9303    2.0378 H   0  0  0  0  0  0  0  0  0  0  0  0
   20.1344   -1.5820    0.9361 H   0  0  0  0  0  0  0  0  0  0  0  0
  1  2  1  0
  2  3  1  0
  3  4  1  0
  3  5  1  0
  5  6  1  0
  6  7  1  0
  7  8  1  0
  8  9  2  0
  8 10  1  0
 10 11  1  0
 11 12  1  0
 12 13  1  0
 13 14  1  0
 14 15  1  0
 15 16  1  0
 16 17  1  0
 16 18  1  0
 18 19  2  0
 18 20  1  0
 20 21  1  0
 21 22  1  0
 21 23  1  0
 23 24  1  0
 24 25  2  0
 25 26  1  0
 26 27  2  0
 27 28  1  0
 28 29  2  0
 23 30  1  0
 15 31  1  0
 31 32  1  0
  6 33  1  0
 33 34  1  0
  5 35  1  0
 35 36  1  0
 35 37  1  0
 37 38  2  0
 37 39  1  0
 39 40  1  0
 40 41  1  0
 40 42  1  0
 39 43  1  0
 43 44  1  0
 44 45  2  0
 44 46  1  0
 46 47  1  0
 47 48  1  0
 47 49  1  0
 46 50  1  0
 50 51  1  0
 50 52  1  0
 52 53  2  0
 52 54  1  0
 54 55  1  0
 55 56  1  0
 56 57  1  0
 57 58  2  0
 58 59  1  0
 59 60  2  0
 60 61  1  0
 59 62  1  0
 62 63  1  0
 63 64  2  0
 63 65  1  0
 65 66  1  0
 66 67  1  0
 67 68  1  0
 68 69  1  0
 69 70  1  0
 70 71  2  0
 70 72  1  0
 65 73  1  0
 73 74  1  0
 74 75  2  0
 74 76  1  0
 76 77  1  0
 77 78  1  0
 77 79  1  0
 76 80  1  0
 80 81  1  0
 81 82  2  0
 81 83  1  0
 83 84  1  0
 84 85  1  0
 85 86  1  0
 86 87  1  0
 87 88  1  0
 88 89  1  0
 89 90  2  0
 89 91  1  0
 91 92  2  0
 92 93  1  0
 93 94  2  0
 14 10  1  0
 29 24  1  0
 61 56  2  0
 93 88  1  0
  1 95  1  0
  1 96  1  0
  1 97  1  0
  2 98  1  0
  2 99  1  0
  3100  1  6
  4101  1  0
  4102  1  0
  4103  1  0
  5104  1  6
  6105  1  1
  7106  1  0
  7107  1  0
 11108  1  0
 11109  1  0
 12110  1  0
 12111  1  0
 13112  1  0
 13113  1  0
 14114  1  6
 15115  1  6
 16116  1  1
 17117  1  0
 17118  1  0
 17119  1  0
 20120  1  0
 21121  1  6
 22122  1  0
 22123  1  0
 22124  1  0
 23125  1  1
 25126  1  0
 26127  1  0
 27128  1  0
 28129  1  0
 29130  1  0
 30131  1  0
 32132  1  0
 32133  1  0
 32134  1  0
 34135  1  0
 34136  1  0
 34137  1  0
 36138  1  0
 36139  1  0
 36140  1  0
 39141  1  1
 40142  1  0
 41143  1  0
 41144  1  0
 41145  1  0
 42146  1  0
 42147  1  0
 42148  1  0
 43149  1  0
 46150  1  6
 47151  1  0
 48152  1  0
 48153  1  0
 48154  1  0
 49155  1  0
 49156  1  0
 49157  1  0
 51158  1  0
 51159  1  0
 51160  1  0
 55161  1  0
 55162  1  0
 57163  1  0
 58164  1  0
 60165  1  0
 61166  1  0
 62167  1  0
 65168  1  6
 66169  1  0
 66170  1  0
 67171  1  0
 67172  1  0
 68173  1  0
 68174  1  0
 69175  1  0
 72176  1  0
 72177  1  0
 73178  1  0
 76179  1  6
 77180  1  0
 78181  1  0
 78182  1  0
 78183  1  0
 79184  1  0
 79185  1  0
 79186  1  0
 80187  1  0
 83188  1  0
 83189  1  0
 84190  1  0
 84191  1  0
 85192  1  0
 85193  1  0
 86194  1  0
 86195  1  0
 87196  1  0
 87197  1  0
 91198  1  0
 92199  1  0
M  END
$$$$

     RDKit          3D

199202  0  0  0  0  0  0  0  0999 V2000
   -4.3646    4.0632   -0.0002 C   0  0  0  0  0  0  0  0  0  0  0  0
   -5.2446    2.8168   -0.0123 C   0  0  0  0  0  0  0  0  0  0  0  0
   -5.0745    1.9530   -1.2818 C   0  0  2  0  0  0  0  0  0  0  0  0
   -5.4777    2.7555   -2.5251 C   0  0  0  0  0  0  0  0  0  0  0  0
   -5.7656    0.5503   -1.1110 C   0  0  1  0  0  0  0  0  0  0  0  0
   -7.3298    0.4261   -1.2964 C   0  0  1  0  0  0  0  0  0  0  0  0
   -8.0771    0.9669   -0.0576 C   0  0  0  0  0  0  0  0  0  0  0  0
   -9.3816    0.2291    0.2278 C   0  0  0  0  0  0  0  0  0  0  0  0
   -9.7419   -0.7605   -0.3969 O   0  0  0  0  0  0  0  0  0  0  0  0
  -10.1418    0.7751    1.2621 N   0  0  0  0  0  0  0  0  0  0  0  0
   -9.4997    1.0650    2.5448 C   0  0  0  0  0  0  0  0  0  0  0  0
  -10.5492    0.7712    3.6102 C   0  0  0  0  0  0  0  0  0  0  0  0
  -11.4770   -0.2160    2.9132 C   0  0  0  0  0  0  0  0  0  0  0  0
  -11.5238    0.3208    1.4713 C   0  0  1  0  0  0  0  0  0  0  0  0
  -12.5618    1.4839    1.3328 C   0  0  1  0  0  0  0  0  0  0  0  0
  -12.7393    2.0875   -0.0806 C   0  0  1  0  0  0  0  0  0  0  0  0
  -11.6061    3.0377   -0.4666 C   0  0  0  0  0  0  0  0  0  0  0  0
  -12.9900    1.0519   -1.1751 C   0  0  0  0  0  0  0  0  0  0  0  0
  -12.3901    1.0451   -2.2454 O   0  0  0  0  0  0  0  0  0  0  0  0
  -14.0258    0.1909   -0.8917 N   0  0  0  0  0  0  0  0  0  0  0  0
  -14.6284   -0.6847   -1.9008 C   0  0  2  0  0  0  0  0  0  0  0  0
  -15.5856    0.1219   -2.7847 C   0  0  0  0  0  0  0  0  0  0  0  0
  -15.2769   -1.9518   -1.2690 C   0  0  1  0  0  0  0  0  0  0  0  0
  -16.3523   -1.6773   -0.2305 C   0  0  0  0  0  0  0  0  0  0  0  0
  -16.0267   -1.6918    1.1343 C   0  0  0  0  0  0  0  0  0  0  0  0
  -16.9967   -1.4207    2.1011 C   0  0  0  0  0  0  0  0  0  0  0  0
  -18.3045   -1.1319    1.7154 C   0  0  0  0  0  0  0  0  0  0  0  0
  -18.6439   -1.1170    0.3638 C   0  0  0  0  0  0  0  0  0  0  0  0
  -17.6758   -1.3904   -0.6022 C   0  0  0  0  0  0  0  0  0  0  0  0
  -15.7978   -2.8119   -2.2884 O   0  0  0  0  0  0  0  0  0  0  0  0
  -13.8479    1.0008    1.7888 O   0  0  0  0  0  0  0  0  0  0  0  0
  -14.5825    1.9763    2.5216 C   0  0  0  0  0  0  0  0  0  0  0  0
   -7.7263    1.1197   -2.4863 O   0  0  0  0  0  0  0  0  0  0  0  0
   -9.0128    0.7668   -2.9816 C   0  0  0  0  0  0  0  0  0  0  0  0
   -5.0199   -0.5218   -1.8565 N   0  0  0  0  0  0  0  0  0  0  0  0
   -5.1429   -0.5557   -3.3090 C   0  0  0  0  0  0  0  0  0  0  0  0
   -3.9910   -1.2942   -1.3114 C   0  0  0  0  0  0  0  0  0  0  0  0
   -3.2518   -1.9954   -2.0182 O   0  0  0  0  0  0  0  0  0  0  0  0
   -3.8051   -1.3412    0.2290 C   0  0  1  0  0  0  0  0  0  0  0  0
   -4.9440   -2.1403    0.9131 C   0  0  0  0  0  0  0  0  0  0  0  0
   -4.9895   -1.8595    2.4177 C   0  0  0  0  0  0  0  0  0  0  0  0
   -4.8551   -3.6506    0.6648 C   0  0  0  0  0  0  0  0  0  0  0  0
   -2.4965   -1.9442    0.4959 N   0  0  0  0  0  0  0  0  0  0  0  0
   -1.5661   -1.3790    1.3409 C   0  0  0  0  0  0  0  0  0  0  0  0
   -1.8116   -0.3707    1.9997 O   0  0  0  0  0  0  0  0  0  0  0  0
   -0.2280   -2.1674    1.4235 C   0  0  1  0  0  0  0  0  0  0  0  0
    0.6627   -2.1935    0.1450 C   0  0  0  0  0  0  0  0  0  0  0  0
    0.6428   -3.5867   -0.5032 C   0  0  0  0  0  0  0  0  0  0  0  0
    0.3189   -1.1470   -0.9188 C   0  0  0  0  0  0  0  0  0  0  0  0
    0.5160   -1.8353    2.6619 N   0  0  0  0  0  0  0  0  0  0  0  0
    0.3807   -2.7549    3.7800 C   0  0  0  0  0  0  0  0  0  0  0  0
    1.1806   -0.6384    2.8726 C   0  0  0  0  0  0  0  0  0  0  0  0
    1.7311   -0.3405    3.9275 O   0  0  0  0  0  0  0  0  0  0  0  0
    1.1751    0.1610    1.7805 O   0  0  0  0  0  0  0  0  0  0  0  0
    1.8391    1.4214    1.9140 C   0  0  0  0  0  0  0  0  0  0  0  0
    3.2215    1.3337    1.3179 C   0  0  0  0  0  0  0  0  0  0  0  0
    3.4072    1.3749   -0.0677 C   0  0  0  0  0  0  0  0  0  0  0  0
    4.6907    1.2701   -0.6156 C   0  0  0  0  0  0  0  0  0  0  0  0
    5.8143    1.1123    0.2063 C   0  0  0  0  0  0  0  0  0  0  0  0
    5.6296    1.0662    1.5884 C   0  0  0  0  0  0  0  0  0  0  0  0
    4.3435    1.1710    2.1388 C   0  0  0  0  0  0  0  0  0  0  0  0
    7.0668    0.9913   -0.4296 N   0  0  0  0  0  0  0  0  0  0  0  0
    8.3096    0.8119    0.1649 C   0  0  0  0  0  0  0  0  0  0  0  0
    8.5378    0.7835    1.3713 O   0  0  0  0  0  0  0  0  0  0  0  0
    9.4526    0.6891   -0.8803 C   0  0  1  0  0  0  0  0  0  0  0  0
    9.7782    2.0683   -1.4782 C   0  0  0  0  0  0  0  0  0  0  0  0
   11.0166    2.1173   -2.3889 C   0  0  0  0  0  0  0  0  0  0  0  0
   10.8390    1.4684   -3.7625 C   0  0  0  0  0  0  0  0  0  0  0  0
   10.6328    0.0389   -3.7272 N   0  0  0  0  0  0  0  0  0  0  0  0
   11.6552   -0.8317   -3.4930 C   0  0  0  0  0  0  0  0  0  0  0  0
   12.8009   -0.5404   -3.1738 O   0  0  0  0  0  0  0  0  0  0  0  0
   11.2537   -2.1185   -3.6393 N   0  0  0  0  0  0  0  0  0  0  0  0
   10.6287    0.1228   -0.2374 N   0  0  0  0  0  0  0  0  0  0  0  0
   10.9064   -1.2324   -0.2648 C   0  0  0  0  0  0  0  0  0  0  0  0
   10.1943   -2.0486   -0.8449 O   0  0  0  0  0  0  0  0  0  0  0  0
   12.2298   -1.5847    0.4589 C   0  0  1  0  0  0  0  0  0  0  0  0
   12.4878   -3.1026    0.5898 C   0  0  0  0  0  0  0  0  0  0  0  0
   13.5956   -3.3604    1.6177 C   0  0  0  0  0  0  0  0  0  0  0  0
   12.8356   -3.8065   -0.7197 C   0  0  0  0  0  0  0  0  0  0  0  0
   13.3114   -0.8818   -0.2420 N   0  0  0  0  0  0  0  0  0  0  0  0
   13.7818    0.3314    0.2092 C   0  0  0  0  0  0  0  0  0  0  0  0
   13.4508    0.8238    1.2867 O   0  0  0  0  0  0  0  0  0  0  0  0
   14.7625    1.0116   -0.7253 C   0  0  0  0  0  0  0  0  0  0  0  0
   16.1182    0.3148   -0.7648 C   0  0  0  0  0  0  0  0  0  0  0  0
   16.9632    0.6356    0.4722 C   0  0  0  0  0  0  0  0  0  0  0  0
   18.3214   -0.0704    0.4059 C   0  0  0  0  0  0  0  0  0  0  0  0
   19.2220    0.2478    1.6017 C   0  0  0  0  0  0  0  0  0  0  0  0
   19.6538    1.6334    1.6336 N   0  0  0  0  0  0  0  0  0  0  0  0
   20.5710    2.1761    0.7945 C   0  0  0  0  0  0  0  0  0  0  0  0
   21.1908    1.6499   -0.1112 O   0  0  0  0  0  0  0  0  0  0  0  0
   20.7164    3.5864    1.1688 C   0  0  0  0  0  0  0  0  0  0  0  0
   19.9119    3.8188    2.2039 C   0  0  0  0  0  0  0  0  0  0  0  0
   19.2238    2.5629    2.5233 C   0  0  0  0  0  0  0  0  0  0  0  0
   18.4297    2.4451    3.4375 O   0  0  0  0  0  0  0  0  0  0  0  0
   -4.6644    4.7753   -0.7752 H   0  0  0  0  0  0  0  0  0  0  0  0
   -3.3113    3.8027   -0.1559 H   0  0  0  0  0  0  0  0  0  0  0  0
   -4.4442    4.5742    0.9644 H   0  0  0  0  0  0  0  0  0  0  0  0
   -6.2883    3.1335    0.0984 H   0  0  0  0  0  0  0  0  0  0  0  0
   -4.9931    2.2223    0.8785 H   0  0  0  0  0  0  0  0  0  0  0  0
   -4.0001    1.7519   -1.3747 H   0  0  0  0  0  0  0  0  0  0  0  0
   -5.5139    2.1430   -3.4267 H   0  0  0  0  0  0  0  0  0  0  0  0
   -6.4554    3.2330   -2.3955 H   0  0  0  0  0  0  0  0  0  0  0  0
   -4.7562    3.5561   -2.7231 H   0  0  0  0  0  0  0  0  0  0  0  0
   -5.6107    0.2941   -0.0640 H   0  0  0  0  0  0  0  0  0  0  0  0
   -7.5432   -0.6448   -1.4217 H   0  0  0  0  0  0  0  0  0  0  0  0
   -7.4530    0.8494    0.8335 H   0  0  0  0  0  0  0  0  0  0  0  0
   -8.3110    2.0271   -0.1931 H   0  0  0  0  0  0  0  0  0  0  0  0
   -9.1648    2.1069    2.5627 H   0  0  0  0  0  0  0  0  0  0  0  0
   -8.6354    0.4060    2.6788 H   0  0  0  0  0  0  0  0  0  0  0  0
  -11.0907    1.6846    3.8809 H   0  0  0  0  0  0  0  0  0  0  0  0
  -10.1094    0.3626    4.5245 H   0  0  0  0  0  0  0  0  0  0  0  0
  -11.0176   -1.2114    2.9200 H   0  0  0  0  0  0  0  0  0  0  0  0
  -12.4521   -0.2972    3.4005 H   0  0  0  0  0  0  0  0  0  0  0  0
  -11.7969   -0.4975    0.7956 H   0  0  0  0  0  0  0  0  0  0  0  0
  -12.2477    2.2976    1.9997 H   0  0  0  0  0  0  0  0  0  0  0  0
  -13.6523    2.6994   -0.0754 H   0  0  0  0  0  0  0  0  0  0  0  0
  -11.4288    3.7793    0.3201 H   0  0  0  0  0  0  0  0  0  0  0  0
  -11.8607    3.5814   -1.3844 H   0  0  0  0  0  0  0  0  0  0  0  0
  -10.6711    2.5137   -0.6653 H   0  0  0  0  0  0  0  0  0  0  0  0
  -14.5452    0.3591   -0.0320 H   0  0  0  0  0  0  0  0  0  0  0  0
  -13.8220   -1.0320   -2.5606 H   0  0  0  0  0  0  0  0  0  0  0  0
  -15.0434    0.9074   -3.3211 H   0  0  0  0  0  0  0  0  0  0  0  0
  -16.3591    0.6220   -2.1913 H   0  0  0  0  0  0  0  0  0  0  0  0
  -16.0699   -0.5130   -3.5324 H   0  0  0  0  0  0  0  0  0  0  0  0
  -14.4768   -2.5265   -0.7833 H   0  0  0  0  0  0  0  0  0  0  0  0
  -15.0090   -1.9058    1.4579 H   0  0  0  0  0  0  0  0  0  0  0  0
  -16.7316   -1.4321    3.1558 H   0  0  0  0  0  0  0  0  0  0  0  0
  -19.0612   -0.9211    2.4675 H   0  0  0  0  0  0  0  0  0  0  0  0
  -19.6637   -0.8922    0.0607 H   0  0  0  0  0  0  0  0  0  0  0  0
  -17.9574   -1.3738   -1.6543 H   0  0  0  0  0  0  0  0  0  0  0  0
  -16.3460   -3.4789   -1.8389 H   0  0  0  0  0  0  0  0  0  0  0  0
  -14.7385    2.8799    1.9284 H   0  0  0  0  0  0  0  0  0  0  0  0
  -14.0602    2.2206    3.4508 H   0  0  0  0  0  0  0  0  0  0  0  0
  -15.5572    1.5512    2.7736 H   0  0  0  0  0  0  0  0  0  0  0  0
   -9.7918    1.1380   -2.3163 H   0  0  0  0  0  0  0  0  0  0  0  0
   -9.1434    1.2547   -3.9501 H   0  0  0  0  0  0  0  0  0  0  0  0
   -9.1007   -0.3147   -3.1192 H   0  0  0  0  0  0  0  0  0  0  0  0
   -6.1778   -0.4114   -3.6127 H   0  0  0  0  0  0  0  0  0  0  0  0
   -4.5021    0.2163   -3.7413 H   0  0  0  0  0  0  0  0  0  0  0  0
   -4.8200   -1.5230   -3.7048 H   0  0  0  0  0  0  0  0  0  0  0  0
   -3.7754   -0.3112    0.5928 H   0  0  0  0  0  0  0  0  0  0  0  0
   -5.9066   -1.8192    0.5004 H   0  0  0  0  0  0  0  0  0  0  0  0
   -5.1279   -0.7896    2.6069 H   0  0  0  0  0  0  0  0  0  0  0  0
   -4.0703   -2.1785    2.9155 H   0  0  0  0  0  0  0  0  0  0  0  0
   -5.8259   -2.3897    2.8865 H   0  0  0  0  0  0  0  0  0  0  0  0
   -3.9842   -4.0946    1.1558 H   0  0  0  0  0  0  0  0  0  0  0  0
   -5.7460   -4.1548    1.0563 H   0  0  0  0  0  0  0  0  0  0  0  0
   -4.7962   -3.8746   -0.4048 H   0  0  0  0  0  0  0  0  0  0  0  0
   -2.1860   -2.6113   -0.2042 H   0  0  0  0  0  0  0  0  0  0  0  0
   -0.5583   -3.2043    1.5907 H   0  0  0  0  0  0  0  0  0  0  0  0
    1.7045   -2.0164    0.4390 H   0  0  0  0  0  0  0  0  0  0  0  0
   -0.3589   -3.8397   -0.8684 H   0  0  0  0  0  0  0  0  0  0  0  0
    0.9537   -4.3558    0.2141 H   0  0  0  0  0  0  0  0  0  0  0  0
    1.3314   -3.6307   -1.3536 H   0  0  0  0  0  0  0  0  0  0  0  0
    1.0655   -1.1622   -1.7223 H   0  0  0  0  0  0  0  0  0  0  0  0
   -0.6496   -1.3420   -1.3897 H   0  0  0  0  0  0  0  0  0  0  0  0
    0.3007   -0.1307   -0.5113 H   0  0  0  0  0  0  0  0  0  0  0  0
    0.9811   -2.4566    4.6441 H   0  0  0  0  0  0  0  0  0  0  0  0
    0.7097   -3.7481    3.4566 H   0  0  0  0  0  0  0  0  0  0  0  0
   -0.6715   -2.7986    4.0790 H   0  0  0  0  0  0  0  0  0  0  0  0
    1.2510    2.1623    1.3578 H   0  0  0  0  0  0  0  0  0  0  0  0
    1.8643    1.7850    2.9488 H   0  0  0  0  0  0  0  0  0  0  0  0
    2.5522    1.4805   -0.7288 H   0  0  0  0  0  0  0  0  0  0  0  0
    4.7939    1.3060   -1.6976 H   0  0  0  0  0  0  0  0  0  0  0  0
    6.4612    0.9351    2.2762 H   0  0  0  0  0  0  0  0  0  0  0  0
    4.2279    1.1084    3.2209 H   0  0  0  0  0  0  0  0  0  0  0  0
    7.0462    1.0001   -1.4401 H   0  0  0  0  0  0  0  0  0  0  0  0
    9.1082    0.0009   -1.6578 H   0  0  0  0  0  0  0  0  0  0  0  0
    8.9092    2.4554   -2.0218 H   0  0  0  0  0  0  0  0  0  0  0  0
    9.9509    2.7701   -0.6504 H   0  0  0  0  0  0  0  0  0  0  0  0
   11.8800    1.6872   -1.8746 H   0  0  0  0  0  0  0  0  0  0  0  0
   11.2595    3.1732   -2.5540 H   0  0  0  0  0  0  0  0  0  0  0  0
    9.9744    1.9038   -4.2721 H   0  0  0  0  0  0  0  0  0  0  0  0
   11.7234    1.6655   -4.3805 H   0  0  0  0  0  0  0  0  0  0  0  0
    9.9586   -0.3416   -4.3778 H   0  0  0  0  0  0  0  0  0  0  0  0
   10.4079   -2.3309   -3.1085 H   0  0  0  0  0  0  0  0  0  0  0  0
   11.9854   -2.7801   -3.4138 H   0  0  0  0  0  0  0  0  0  0  0  0
   11.0360    0.6455    0.5351 H   0  0  0  0  0  0  0  0  0  0  0  0
   12.1274   -1.1749    1.4729 H   0  0  0  0  0  0  0  0  0  0  0  0
   11.5736   -3.5684    0.9796 H   0  0  0  0  0  0  0  0  0  0  0  0
   13.7370   -4.4350    1.7749 H   0  0  0  0  0  0  0  0  0  0  0  0
   14.5524   -2.9393    1.2925 H   0  0  0  0  0  0  0  0  0  0  0  0
   13.3391   -2.9172    2.5856 H   0  0  0  0  0  0  0  0  0  0  0  0
   13.0535   -4.8660   -0.5410 H   0  0  0  0  0  0  0  0  0  0  0  0
   12.0021   -3.7704   -1.4248 H   0  0  0  0  0  0  0  0  0  0  0  0
   13.7162   -3.3691   -1.2019 H   0  0  0  0  0  0  0  0  0  0  0  0
   13.3537   -1.0059   -1.2549 H   0  0  0  0  0  0  0  0  0  0  0  0
   14.8633    2.0609   -0.4245 H   0  0  0  0  0  0  0  0  0  0  0  0
   14.3243    1.0209   -1.7287 H   0  0  0  0  0  0  0  0  0  0  0  0
   15.9933   -0.7731   -0.8566 H   0  0  0  0  0  0  0  0  0  0  0  0
   16.6552    0.6524   -1.6581 H   0  0  0  0  0  0  0  0  0  0  0  0
   16.4356    0.3265    1.3818 H   0  0  0  0  0  0  0  0  0  0  0  0
   17.1092    1.7213    0.5307 H   0  0  0  0  0  0  0  0  0  0  0  0
   18.8311    0.2005   -0.5252 H   0  0  0  0  0  0  0  0  0  0  0  0
   18.1569   -1.1545    0.3745 H   0  0  0  0  0  0  0  0  0  0  0  0
   20.1227   -0.3717    1.5376 H   0  0  0  0  0  0  0  0  0  0  0  0
   18.7103    0.0048    2.5394 H   0  0  0  0  0  0  0  0  0  0  0  0
   21.3751    4.2696    0.6640 H   0  0  0  0  0  0  0  0  0  0  0  0
   19.7547    4.7357    2.7447 H   0  0  0  0  0  0  0  0  0  0  0  0
  1  2  1  0
  2  3  1  0
  3  4  1  0
  3  5  1  0
  5  6  1  0
  6  7  1  0
  7  8  1  0
  8  9  2  0
  8 10  1  0
 10 11  1  0
 11 12  1  0
 12 13  1  0
 13 14  1  0
 14 15  1  0
 15 16  1  0
 16 17  1  0
 16 18  1  0
 18 19  2  0
 18 20  1  0
 20 21  1  0
 21 22  1  0
 21 23  1  0
 23 24  1  0
 24 25  2  0
 25 26  1  0
 26 27  2  0
 27 28  1  0
 28 29  2  0
 23 30  1  0
 15 31  1  0
 31 32  1  0
  6 33  1  0
 33 34  1  0
  5 35  1  0
 35 36  1  0
 35 37  1  0
 37 38  2  0
 37 39  1  0
 39 40  1  0
 40 41  1  0
 40 42  1  0
 39 43  1  0
 43 44  1  0
 44 45  2  0
 44 46  1  0
 46 47  1  0
 47 48  1  0
 47 49  1  0
 46 50  1  0
 50 51  1  0
 50 52  1  0
 52 53  2  0
 52 54  1  0
 54 55  1  0
 55 56  1  0
 56 57  1  0
 57 58  2  0
 58 59  1  0
 59 60  2  0
 60 61  1  0
 59 62  1  0
 62 63  1  0
 63 64  2  0
 63 65  1  0
 65 66  1  0
 66 67  1  0
 67 68  1  0
 68 69  1  0
 69 70  1  0
 70 71  2  0
 70 72  1  0
 65 73  1  0
 73 74  1  0
 74 75  2  0
 74 76  1  0
 76 77  1  0
 77 78  1  0
 77 79  1  0
 76 80  1  0
 80 81  1  0
 81 82  2  0
 81 83  1  0
 83 84  1  0
 84 85  1  0
 85 86  1  0
 86 87  1  0
 87 88  1  0
 88 89  1  0
 89 90  2  0
 89 91  1  0
 91 92  2  0
 92 93  1  0
 93 94  2  0
 14 10  1  0
 29 24  1  0
 61 56  2  0
 93 88  1  0
  1 95  1  0
  1 96  1  0
  1 97  1  0
  2 98  1  0
  2 99  1  0
  3100  1  6
  4101  1  0
  4102  1  0
  4103  1  0
  5104  1  1
  6105  1  6
  7106  1  0
  7107  1  0
 11108  1  0
 11109  1  0
 12110  1  0
 12111  1  0
 13112  1  0
 13113  1  0
 14114  1  6
 15115  1  1
 16116  1  1
 17117  1  0
 17118  1  0
 17119  1  0
 20120  1  0
 21121  1  6
 22122  1  0
 22123  1  0
 22124  1  0
 23125  1  1
 25126  1  0
 26127  1  0
 27128  1  0
 28129  1  0
 29130  1  0
 30131  1  0
 32132  1  0
 32133  1  0
 32134  1  0
 34135  1  0
 34136  1  0
 34137  1  0
 36138  1  0
 36139  1  0
 36140  1  0
 39141  1  1
 40142  1  0
 41143  1  0
 41144  1  0
 41145  1  0
 42146  1  0
 42147  1  0
 42148  1  0
 43149  1  0
 46150  1  1
 47151  1  0
 48152  1  0
 48153  1  0
 48154  1  0
 49155  1  0
 49156  1  0
 49157  1  0
 51158  1  0
 51159  1  0
 51160  1  0
 55161  1  0
 55162  1  0
 57163  1  0
 58164  1  0
 60165  1  0
 61166  1  0
 62167  1  0
 65168  1  6
 66169  1  0
 66170  1  0
 67171  1  0
 67172  1  0
 68173  1  0
 68174  1  0
 69175  1  0
 72176  1  0
 72177  1  0
 73178  1  0
 76179  1  1
 77180  1  0
 78181  1  0
 78182  1  0
 78183  1  0
 79184  1  0
 79185  1  0
 79186  1  0
 80187  1  0
 83188  1  0
 83189  1  0
 84190  1  0
 84191  1  0
 85192  1  0
 85193  1  0
 86194  1  0
 86195  1  0
 87196  1  0
 87197  1  0
 91198  1  0
 92199  1  0
M  END
$$$$

     RDKit          3D

199202  0  0  0  0  0  0  0  0999 V2000
   -3.1164    2.1374   -1.4419 C   0  0  0  0  0  0  0  0  0  0  0  0
   -4.2041    1.3488   -0.7250 C   0  0  0  0  0  0  0  0  0  0  0  0
   -5.1732    0.5902   -1.6794 C   0  0  2  0  0  0  0  0  0  0  0  0
   -5.9471    1.6274   -2.5086 C   0  0  0  0  0  0  0  0  0  0  0  0
   -6.1295   -0.3680   -0.8827 C   0  0  1  0  0  0  0  0  0  0  0  0
   -7.0135   -1.3832   -1.6955 C   0  0  1  0  0  0  0  0  0  0  0  0
   -8.2179   -0.8913   -2.5114 C   0  0  0  0  0  0  0  0  0  0  0  0
   -9.2432   -0.0581   -1.7638 C   0  0  0  0  0  0  0  0  0  0  0  0
   -8.9004    0.8660   -1.0292 O   0  0  0  0  0  0  0  0  0  0  0  0
  -10.5739   -0.3326   -2.0001 N   0  0  0  0  0  0  0  0  0  0  0  0
  -11.1160   -1.2687   -2.9774 C   0  0  0  0  0  0  0  0  0  0  0  0
  -12.4708   -0.6846   -3.3251 C   0  0  0  0  0  0  0  0  0  0  0  0
  -12.9397   -0.1513   -1.9812 C   0  0  0  0  0  0  0  0  0  0  0  0
  -11.6652    0.4172   -1.3372 C   0  0  1  0  0  0  0  0  0  0  0  0
  -11.6421    0.3199    0.2187 C   0  0  1  0  0  0  0  0  0  0  0  0
  -12.7576    1.0998    0.9693 C   0  0  1  0  0  0  0  0  0  0  0  0
  -12.7640    2.5910    0.6276 C   0  0  0  0  0  0  0  0  0  0  0  0
  -14.1366    0.4222    0.9281 C   0  0  0  0  0  0  0  0  0  0  0  0
  -14.3677   -0.6074    1.5603 O   0  0  0  0  0  0  0  0  0  0  0  0
  -15.1070    1.0336    0.1750 N   0  0  0  0  0  0  0  0  0  0  0  0
  -16.4534    0.4757   -0.0094 C   0  0  2  0  0  0  0  0  0  0  0  0
  -16.4253   -0.5247   -1.1708 C   0  0  0  0  0  0  0  0  0  0  0  0
  -17.4828    1.6066   -0.3008 C   0  0  1  0  0  0  0  0  0  0  0  0
  -18.0918    2.2699    0.9199 C   0  0  0  0  0  0  0  0  0  0  0  0
  -19.4826    2.4758    0.9749 C   0  0  0  0  0  0  0  0  0  0  0  0
  -20.0691    3.1057    2.0749 C   0  0  0  0  0  0  0  0  0  0  0  0
  -19.2761    3.5420    3.1335 C   0  0  0  0  0  0  0  0  0  0  0  0
  -17.8955    3.3503    3.0902 C   0  0  0  0  0  0  0  0  0  0  0  0
  -17.3053    2.7256    1.9879 C   0  0  0  0  0  0  0  0  0  0  0  0
  -16.8684    2.6119   -1.1279 O   0  0  0  0  0  0  0  0  0  0  0  0
  -11.5915   -1.0757    0.5815 O   0  0  0  0  0  0  0  0  0  0  0  0
  -11.0811   -1.3171    1.8855 C   0  0  0  0  0  0  0  0  0  0  0  0
   -6.1701   -2.1127   -2.6129 O   0  0  0  0  0  0  0  0  0  0  0  0
   -6.4479   -3.5056   -2.6518 C   0  0  0  0  0  0  0  0  0  0  0  0
   -5.4159   -1.1358    0.2088 N   0  0  0  0  0  0  0  0  0  0  0  0
   -6.0640   -1.0924    1.5149 C   0  0  0  0  0  0  0  0  0  0  0  0
   -4.2722   -1.8851   -0.0752 C   0  0  0  0  0  0  0  0  0  0  0  0
   -3.7536   -1.9293   -1.1973 O   0  0  0  0  0  0  0  0  0  0  0  0
   -3.5858   -2.6924    1.0580 C   0  0  1  0  0  0  0  0  0  0  0  0
   -4.3059   -4.0302    1.3287 C   0  0  0  0  0  0  0  0  0  0  0  0
   -4.0921   -5.0674    0.2220 C   0  0  0  0  0  0  0  0  0  0  0  0
   -3.8653   -4.6170    2.6713 C   0  0  0  0  0  0  0  0  0  0  0  0
   -2.1942   -2.9018    0.6324 N   0  0  0  0  0  0  0  0  0  0  0  0
   -1.1349   -2.4932    1.4028 C   0  0  0  0  0  0  0  0  0  0  0  0
   -1.2812   -2.1325    2.5715 O   0  0  0  0  0  0  0  0  0  0  0  0
    0.2444   -2.4191    0.7045 C   0  0  1  0  0  0  0  0  0  0  0  0
    0.7883   -3.6871   -0.0195 C   0  0  0  0  0  0  0  0  0  0  0  0
    0.1241   -4.1400   -1.3174 C   0  0  0  0  0  0  0  0  0  0  0  0
    0.8358   -4.8743    0.9556 C   0  0  0  0  0  0  0  0  0  0  0  0
    0.3999   -1.1408   -0.0357 N   0  0  0  0  0  0  0  0  0  0  0  0
   -0.5308   -0.7962   -1.0990 C   0  0  0  0  0  0  0  0  0  0  0  0
    1.0055   -0.0355    0.5758 C   0  0  0  0  0  0  0  0  0  0  0  0
    0.8863    1.1126    0.1667 O   0  0  0  0  0  0  0  0  0  0  0  0
    1.7225   -0.3698    1.6781 O   0  0  0  0  0  0  0  0  0  0  0  0
    2.2631    0.7077    2.4389 C   0  0  0  0  0  0  0  0  0  0  0  0
    3.7299    0.8672    2.1443 C   0  0  0  0  0  0  0  0  0  0  0  0
    4.6830    0.0546    2.7733 C   0  0  0  0  0  0  0  0  0  0  0  0
    6.0445    0.2257    2.5077 C   0  0  0  0  0  0  0  0  0  0  0  0
    6.4835    1.2100    1.6080 C   0  0  0  0  0  0  0  0  0  0  0  0
    5.5306    1.9988    0.9595 C   0  0  0  0  0  0  0  0  0  0  0  0
    4.1654    1.8249    1.2162 C   0  0  0  0  0  0  0  0  0  0  0  0
    7.8735    1.3731    1.4484 N   0  0  0  0  0  0  0  0  0  0  0  0
    8.5280    2.2238    0.5813 C   0  0  0  0  0  0  0  0  0  0  0  0
    8.0206    2.7870   -0.3915 O   0  0  0  0  0  0  0  0  0  0  0  0
   10.0430    2.3692    0.8582 C   0  0  1  0  0  0  0  0  0  0  0  0
   10.3677    2.7097    2.3288 C   0  0  0  0  0  0  0  0  0  0  0  0
   11.8555    2.9801    2.5989 C   0  0  0  0  0  0  0  0  0  0  0  0
   12.3130    4.4150    2.3477 C   0  0  0  0  0  0  0  0  0  0  0  0
   12.1104    4.9235    1.0116 N   0  0  0  0  0  0  0  0  0  0  0  0
   12.7544    4.4339   -0.0838 C   0  0  0  0  0  0  0  0  0  0  0  0
   13.4722    3.4450   -0.1068 O   0  0  0  0  0  0  0  0  0  0  0  0
   12.4909    5.1598   -1.1965 N   0  0  0  0  0  0  0  0  0  0  0  0
   10.8177    1.2468    0.3298 N   0  0  0  0  0  0  0  0  0  0  0  0
   10.7801   -0.0138    0.8838 C   0  0  0  0  0  0  0  0  0  0  0  0
    9.9456   -0.3413    1.7305 O   0  0  0  0  0  0  0  0  0  0  0  0
   11.7686   -1.0260    0.2616 C   0  0  1  0  0  0  0  0  0  0  0  0
   11.0097   -2.0647   -0.5993 C   0  0  0  0  0  0  0  0  0  0  0  0
   11.9443   -3.1946   -1.0478 C   0  0  0  0  0  0  0  0  0  0  0  0
   10.3018   -1.4568   -1.8137 C   0  0  0  0  0  0  0  0  0  0  0  0
   12.8467   -0.3734   -0.4875 N   0  0  0  0  0  0  0  0  0  0  0  0
   14.0304   -0.0068    0.1178 C   0  0  0  0  0  0  0  0  0  0  0  0
   14.2604   -0.2024    1.3056 O   0  0  0  0  0  0  0  0  0  0  0  0
   15.0168    0.6175   -0.8510 C   0  0  0  0  0  0  0  0  0  0  0  0
   16.2805    1.1552   -0.1717 C   0  0  0  0  0  0  0  0  0  0  0  0
   17.2908    0.0440    0.1342 C   0  0  0  0  0  0  0  0  0  0  0  0
   18.5407    0.5488    0.8630 C   0  0  0  0  0  0  0  0  0  0  0  0
   19.4010    1.5368    0.0673 C   0  0  0  0  0  0  0  0  0  0  0  0
   19.9738    0.9555   -1.1320 N   0  0  0  0  0  0  0  0  0  0  0  0
   19.4943    1.1235   -2.3888 C   0  0  0  0  0  0  0  0  0  0  0  0
   18.5359    1.7686   -2.7712 O   0  0  0  0  0  0  0  0  0  0  0  0
   20.3702    0.3686   -3.2889 C   0  0  0  0  0  0  0  0  0  0  0  0
   21.3228   -0.1985   -2.5473 C   0  0  0  0  0  0  0  0  0  0  0  0
   21.0809    0.1726   -1.1499 C   0  0  0  0  0  0  0  0  0  0  0  0
   21.7860   -0.1836   -0.2243 O   0  0  0  0  0  0  0  0  0  0  0  0
   -2.6320    1.5301   -2.2139 H   0  0  0  0  0  0  0  0  0  0  0  0
   -3.5099    3.0470   -1.9072 H   0  0  0  0  0  0  0  0  0  0  0  0
   -2.3422    2.4438   -0.7260 H   0  0  0  0  0  0  0  0  0  0  0  0
   -3.6877    0.6495   -0.0606 H   0  0  0  0  0  0  0  0  0  0  0  0
   -4.7746    2.0249   -0.0751 H   0  0  0  0  0  0  0  0  0  0  0  0
   -4.5713   -0.0016   -2.3831 H   0  0  0  0  0  0  0  0  0  0  0  0
   -6.5664    2.2620   -1.8628 H   0  0  0  0  0  0  0  0  0  0  0  0
   -5.2682    2.2801   -3.0652 H   0  0  0  0  0  0  0  0  0  0  0  0
   -6.5854    1.1637   -3.2589 H   0  0  0  0  0  0  0  0  0  0  0  0
   -6.8034    0.2922   -0.3283 H   0  0  0  0  0  0  0  0  0  0  0  0
   -7.4267   -2.0880   -0.9518 H   0  0  0  0  0  0  0  0  0  0  0  0
   -7.9090   -0.3470   -3.4086 H   0  0  0  0  0  0  0  0  0  0  0  0
   -8.6960   -1.7949   -2.9034 H   0  0  0  0  0  0  0  0  0  0  0  0
  -11.2295   -2.2349   -2.4739 H   0  0  0  0  0  0  0  0  0  0  0  0
  -10.4789   -1.3862   -3.8548 H   0  0  0  0  0  0  0  0  0  0  0  0
  -12.3500    0.1441   -4.0294 H   0  0  0  0  0  0  0  0  0  0  0  0
  -13.1526   -1.4233   -3.7539 H   0  0  0  0  0  0  0  0  0  0  0  0
  -13.7146    0.6089   -2.1059 H   0  0  0  0  0  0  0  0  0  0  0  0
  -13.3478   -0.9812   -1.3898 H   0  0  0  0  0  0  0  0  0  0  0  0
  -11.5389    1.4644   -1.6428 H   0  0  0  0  0  0  0  0  0  0  0  0
  -10.6944    0.7682    0.5460 H   0  0  0  0  0  0  0  0  0  0  0  0
  -12.5052    1.0616    2.0390 H   0  0  0  0  0  0  0  0  0  0  0  0
  -12.9952    2.7730   -0.4280 H   0  0  0  0  0  0  0  0  0  0  0  0
  -13.5179    3.1233    1.2217 H   0  0  0  0  0  0  0  0  0  0  0  0
  -11.7889    3.0420    0.8421 H   0  0  0  0  0  0  0  0  0  0  0  0
  -14.9089    1.8371   -0.4095 H   0  0  0  0  0  0  0  0  0  0  0  0
  -16.7443   -0.0721    0.8936 H   0  0  0  0  0  0  0  0  0  0  0  0
  -15.7273   -1.3418   -0.9684 H   0  0  0  0  0  0  0  0  0  0  0  0
  -17.4143   -0.9645   -1.3318 H   0  0  0  0  0  0  0  0  0  0  0  0
  -16.1129   -0.0413   -2.0997 H   0  0  0  0  0  0  0  0  0  0  0  0
  -18.3035    1.1844   -0.8938 H   0  0  0  0  0  0  0  0  0  0  0  0
  -20.1227    2.1444    0.1603 H   0  0  0  0  0  0  0  0  0  0  0  0
  -21.1443    3.2557    2.1057 H   0  0  0  0  0  0  0  0  0  0  0  0
  -19.7308    4.0318    3.9910 H   0  0  0  0  0  0  0  0  0  0  0  0
  -17.2780    3.6921    3.9169 H   0  0  0  0  0  0  0  0  0  0  0  0
  -16.2255    2.5988    1.9805 H   0  0  0  0  0  0  0  0  0  0  0  0
  -17.3428    3.4449   -0.9534 H   0  0  0  0  0  0  0  0  0  0  0  0
  -10.1097   -0.8310    2.0216 H   0  0  0  0  0  0  0  0  0  0  0  0
  -10.9439   -2.3969    1.9961 H   0  0  0  0  0  0  0  0  0  0  0  0
  -11.7809   -0.9809    2.6538 H   0  0  0  0  0  0  0  0  0  0  0  0
   -5.6960   -3.9870   -3.2841 H   0  0  0  0  0  0  0  0  0  0  0  0
   -6.3944   -3.9439   -1.6516 H   0  0  0  0  0  0  0  0  0  0  0  0
   -7.4366   -3.6919   -3.0823 H   0  0  0  0  0  0  0  0  0  0  0  0
   -7.0450   -1.5683    1.4292 H   0  0  0  0  0  0  0  0  0  0  0  0
   -6.1935   -0.0472    1.8094 H   0  0  0  0  0  0  0  0  0  0  0  0
   -5.5040   -1.5981    2.3000 H   0  0  0  0  0  0  0  0  0  0  0  0
   -3.5680   -2.0641    1.9543 H   0  0  0  0  0  0  0  0  0  0  0  0
   -5.3862   -3.8413    1.3939 H   0  0  0  0  0  0  0  0  0  0  0  0
   -3.0575   -5.4242    0.1933 H   0  0  0  0  0  0  0  0  0  0  0  0
   -4.3379   -4.6611   -0.7627 H   0  0  0  0  0  0  0  0  0  0  0  0
   -4.7345   -5.9408    0.3884 H   0  0  0  0  0  0  0  0  0  0  0  0
   -4.0580   -3.9125    3.4878 H   0  0  0  0  0  0  0  0  0  0  0  0
   -2.7986   -4.8604    2.6760 H   0  0  0  0  0  0  0  0  0  0  0  0
   -4.4193   -5.5381    2.8910 H   0  0  0  0  0  0  0  0  0  0  0  0
   -2.0817   -2.8913   -0.3751 H   0  0  0  0  0  0  0  0  0  0  0  0
    0.9193   -2.3626    1.5701 H   0  0  0  0  0  0  0  0  0  0  0  0
    1.8325   -3.4580   -0.2836 H   0  0  0  0  0  0  0  0  0  0  0  0
    0.6308   -5.0285   -1.7067 H   0  0  0  0  0  0  0  0  0  0  0  0
   -0.9221   -4.4141   -1.1785 H   0  0  0  0  0  0  0  0  0  0  0  0
    0.2038   -3.3845   -2.1017 H   0  0  0  0  0  0  0  0  0  0  0  0
    1.3633   -5.7214    0.5068 H   0  0  0  0  0  0  0  0  0  0  0  0
   -0.1710   -5.2061    1.2314 H   0  0  0  0  0  0  0  0  0  0  0  0
    1.3732   -4.6068    1.8733 H   0  0  0  0  0  0  0  0  0  0  0  0
   -1.4166   -0.3339   -0.6506 H   0  0  0  0  0  0  0  0  0  0  0  0
   -0.8319   -1.6645   -1.6823 H   0  0  0  0  0  0  0  0  0  0  0  0
   -0.0688   -0.0699   -1.7791 H   0  0  0  0  0  0  0  0  0  0  0  0
    1.7171    1.6469    2.2908 H   0  0  0  0  0  0  0  0  0  0  0  0
    2.1327    0.4584    3.4993 H   0  0  0  0  0  0  0  0  0  0  0  0
    4.3625   -0.7114    3.4814 H   0  0  0  0  0  0  0  0  0  0  0  0
    6.7615   -0.4081    3.0247 H   0  0  0  0  0  0  0  0  0  0  0  0
    5.8179    2.7726    0.2491 H   0  0  0  0  0  0  0  0  0  0  0  0
    3.4440    2.4519    0.6936 H   0  0  0  0  0  0  0  0  0  0  0  0
    8.4732    0.7124    1.9437 H   0  0  0  0  0  0  0  0  0  0  0  0
   10.3383    3.2269    0.2429 H   0  0  0  0  0  0  0  0  0  0  0  0
    9.7634    3.5671    2.6522 H   0  0  0  0  0  0  0  0  0  0  0  0
   10.0653    1.8784    2.9763 H   0  0  0  0  0  0  0  0  0  0  0  0
   12.0465    2.7655    3.6582 H   0  0  0  0  0  0  0  0  0  0  0  0
   12.4863    2.2770    2.0418 H   0  0  0  0  0  0  0  0  0  0  0  0
   11.7938    5.1009    3.0277 H   0  0  0  0  0  0  0  0  0  0  0  0
   13.3850    4.4868    2.5637 H   0  0  0  0  0  0  0  0  0  0  0  0
   11.3167    5.5264    0.8392 H   0  0  0  0  0  0  0  0  0  0  0  0
   13.0850    4.8995   -1.9802 H   0  0  0  0  0  0  0  0  0  0  0  0
   12.4219    6.1588   -1.0673 H   0  0  0  0  0  0  0  0  0  0  0  0
   11.7017    1.4958   -0.1007 H   0  0  0  0  0  0  0  0  0  0  0  0
   12.2270   -1.5441    1.1138 H   0  0  0  0  0  0  0  0  0  0  0  0
   10.2314   -2.5183    0.0312 H   0  0  0  0  0  0  0  0  0  0  0  0
   11.3795   -3.9780   -1.5667 H   0  0  0  0  0  0  0  0  0  0  0  0
   12.7181   -2.8304   -1.7329 H   0  0  0  0  0  0  0  0  0  0  0  0
   12.4398   -3.6540   -0.1865 H   0  0  0  0  0  0  0  0  0  0  0  0
   11.0054   -0.9729   -2.4998 H   0  0  0  0  0  0  0  0  0  0  0  0
    9.7689   -2.2327   -2.3778 H   0  0  0  0  0  0  0  0  0  0  0  0
    9.5578   -0.7127   -1.5068 H   0  0  0  0  0  0  0  0  0  0  0  0
   12.6639   -0.0460   -1.4270 H   0  0  0  0  0  0  0  0  0  0  0  0
   14.5094    1.4494   -1.3550 H   0  0  0  0  0  0  0  0  0  0  0  0
   15.2779   -0.1197   -1.6200 H   0  0  0  0  0  0  0  0  0  0  0  0
   16.0224    1.6994    0.7458 H   0  0  0  0  0  0  0  0  0  0  0  0
   16.7370    1.8795   -0.8538 H   0  0  0  0  0  0  0  0  0  0  0  0
   17.5790   -0.4711   -0.7915 H   0  0  0  0  0  0  0  0  0  0  0  0
   16.8153   -0.7131    0.7690 H   0  0  0  0  0  0  0  0  0  0  0  0
   19.1540   -0.3167    1.1395 H   0  0  0  0  0  0  0  0  0  0  0  0
   18.2376    1.0273    1.8029 H   0  0  0  0  0  0  0  0  0  0  0  0
   18.8252    2.4314   -0.2043 H   0  0  0  0  0  0  0  0  0  0  0  0
   20.2318    1.8621    0.7077 H   0  0  0  0  0  0  0  0  0  0  0  0
   20.2266    0.3194   -4.3540 H   0  0  0  0  0  0  0  0  0  0  0  0
   22.1409   -0.8207   -2.8633 H   0  0  0  0  0  0  0  0  0  0  0  0
  1  2  1  0
  2  3  1  0
  3  4  1  0
  3  5  1  0
  5  6  1  0
  6  7  1  0
  7  8  1  0
  8  9  2  0
  8 10  1  0
 10 11  1  0
 11 12  1  0
 12 13  1  0
 13 14  1  0
 14 15  1  0
 15 16  1  0
 16 17  1  0
 16 18  1  0
 18 19  2  0
 18 20  1  0
 20 21  1  0
 21 22  1  0
 21 23  1  0
 23 24  1  0
 24 25  2  0
 25 26  1  0
 26 27  2  0
 27 28  1  0
 28 29  2  0
 23 30  1  0
 15 31  1  0
 31 32  1  0
  6 33  1  0
 33 34  1  0
  5 35  1  0
 35 36  1  0
 35 37  1  0
 37 38  2  0
 37 39  1  0
 39 40  1  0
 40 41  1  0
 40 42  1  0
 39 43  1  0
 43 44  1  0
 44 45  2  0
 44 46  1  0
 46 47  1  0
 47 48  1  0
 47 49  1  0
 46 50  1  0
 50 51  1  0
 50 52  1  0
 52 53  2  0
 52 54  1  0
 54 55  1  0
 55 56  1  0
 56 57  1  0
 57 58  2  0
 58 59  1  0
 59 60  2  0
 60 61  1  0
 59 62  1  0
 62 63  1  0
 63 64  2  0
 63 65  1  0
 65 66  1  0
 66 67  1  0
 67 68  1  0
 68 69  1  0
 69 70  1  0
 70 71  2  0
 70 72  1  0
 65 73  1  0
 73 74  1  0
 74 75  2  0
 74 76  1  0
 76 77  1  0
 77 78  1  0
 77 79  1  0
 76 80  1  0
 80 81  1  0
 81 82  2  0
 81 83  1  0
 83 84  1  0
 84 85  1  0
 85 86  1  0
 86 87  1  0
 87 88  1  0
 88 89  1  0
 89 90  2  0
 89 91  1  0
 91 92  2  0
 92 93  1  0
 93 94  2  0
 14 10  1  0
 29 24  1  0
 61 56  2  0
 93 88  1  0
  1 95  1  0
  1 96  1  0
  1 97  1  0
  2 98  1  0
  2 99  1  0
  3100  1  6
  4101  1  0
  4102  1  0
  4103  1  0
  5104  1  1
  6105  1  1
  7106  1  0
  7107  1  0
 11108  1  0
 11109  1  0
 12110  1  0
 12111  1  0
 13112  1  0
 13113  1  0
 14114  1  1
 15115  1  1
 16116  1  1
 17117  1  0
 17118  1  0
 17119  1  0
 20120  1  0
 21121  1  1
 22122  1  0
 22123  1  0
 22124  1  0
 23125  1  6
 25126  1  0
 26127  1  0
 27128  1  0
 28129  1  0
 29130  1  0
 30131  1  0
 32132  1  0
 32133  1  0
 32134  1  0
 34135  1  0
 34136  1  0
 34137  1  0
 36138  1  0
 36139  1  0
 36140  1  0
 39141  1  1
 40142  1  0
 41143  1  0
 41144  1  0
 41145  1  0
 42146  1  0
 42147  1  0
 42148  1  0
 43149  1  0
 46150  1  1
 47151  1  0
 48152  1  0
 48153  1  0
 48154  1  0
 49155  1  0
 49156  1  0
 49157  1  0
 51158  1  0
 51159  1  0
 51160  1  0
 55161  1  0
 55162  1  0
 57163  1  0
 58164  1  0
 60165  1  0
 61166  1  0
 62167  1  0
 65168  1  6
 66169  1  0
 66170  1  0
 67171  1  0
 67172  1  0
 68173  1  0
 68174  1  0
 69175  1  0
 72176  1  0
 72177  1  0
 73178  1  0
 76179  1  1
 77180  1  0
 78181  1  0
 78182  1  0
 78183  1  0
 79184  1  0
 79185  1  0
 79186  1  0
 80187  1  0
 83188  1  0
 83189  1  0
 84190  1  0
 84191  1  0
 85192  1  0
 85193  1  0
 86194  1  0
 86195  1  0
 87196  1  0
 87197  1  0
 91198  1  0
 92199  1  0
M  END
$$$$

     RDKit          3D

199202  0  0  0  0  0  0  0  0999 V2000
   -5.3470   -3.5532   -3.8952 C   0  0  0  0  0  0  0  0  0  0  0  0
   -5.3579   -2.6732   -2.6507 C   0  0  0  0  0  0  0  0  0  0  0  0
   -6.6928   -1.9368   -2.4182 C   0  0  2  0  0  0  0  0  0  0  0  0
   -6.9703   -0.9629   -3.5753 C   0  0  0  0  0  0  0  0  0  0  0  0
   -6.8536   -1.1990   -1.0380 C   0  0  1  0  0  0  0  0  0  0  0  0
   -7.1468   -2.1091    0.2187 C   0  0  1  0  0  0  0  0  0  0  0  0
   -8.6581   -2.2139    0.5355 C   0  0  0  0  0  0  0  0  0  0  0  0
   -9.4634   -2.7817   -0.6180 C   0  0  0  0  0  0  0  0  0  0  0  0
   -9.3296   -3.9576   -0.9557 O   0  0  0  0  0  0  0  0  0  0  0  0
  -10.2977   -1.9343   -1.3155 N   0  0  0  0  0  0  0  0  0  0  0  0
  -10.9208   -2.4151   -2.5451 C   0  0  0  0  0  0  0  0  0  0  0  0
  -11.8310   -1.2915   -3.0199 C   0  0  0  0  0  0  0  0  0  0  0  0
  -11.3118   -0.0706   -2.2733 C   0  0  0  0  0  0  0  0  0  0  0  0
  -10.8446   -0.6247   -0.9240 C   0  0  1  0  0  0  0  0  0  0  0  0
  -11.9462   -0.7593    0.1894 C   0  0  1  0  0  0  0  0  0  0  0  0
  -12.5806    0.6144    0.5585 C   0  0  1  0  0  0  0  0  0  0  0  0
  -13.9079    0.8782   -0.1729 C   0  0  0  0  0  0  0  0  0  0  0  0
  -12.7987    0.7347    2.0766 C   0  0  0  0  0  0  0  0  0  0  0  0
  -12.4451   -0.1195    2.8815 O   0  0  0  0  0  0  0  0  0  0  0  0
  -13.3973    1.9167    2.4744 N   0  0  0  0  0  0  0  0  0  0  0  0
  -13.9990    2.0636    3.8162 C   0  0  2  0  0  0  0  0  0  0  0  0
  -15.3612    1.3647    3.8358 C   0  0  0  0  0  0  0  0  0  0  0  0
  -14.0939    3.5776    4.1647 C   0  0  1  0  0  0  0  0  0  0  0  0
  -14.8092    3.8927    5.4581 C   0  0  0  0  0  0  0  0  0  0  0  0
  -14.2346    3.5972    6.7033 C   0  0  0  0  0  0  0  0  0  0  0  0
  -14.9224    3.8742    7.8868 C   0  0  0  0  0  0  0  0  0  0  0  0
  -16.1928    4.4476    7.8421 C   0  0  0  0  0  0  0  0  0  0  0  0
  -16.7746    4.7499    6.6132 C   0  0  0  0  0  0  0  0  0  0  0  0
  -16.0876    4.4768    5.4282 C   0  0  0  0  0  0  0  0  0  0  0  0
  -12.7738    4.1348    4.2251 O   0  0  0  0  0  0  0  0  0  0  0  0
  -12.9575   -1.6853   -0.2438 O   0  0  0  0  0  0  0  0  0  0  0  0
  -13.5234   -2.4414    0.8200 C   0  0  0  0  0  0  0  0  0  0  0  0
   -6.5774   -3.4090    0.0759 O   0  0  0  0  0  0  0  0  0  0  0  0
   -6.1974   -4.0085    1.3050 C   0  0  0  0  0  0  0  0  0  0  0  0
   -5.8213   -0.1459   -0.7595 N   0  0  0  0  0  0  0  0  0  0  0  0
   -6.2521    1.2321   -0.9798 C   0  0  0  0  0  0  0  0  0  0  0  0
   -4.5275   -0.5025   -0.3874 C   0  0  0  0  0  0  0  0  0  0  0  0
   -4.2061   -1.6777   -0.1722 O   0  0  0  0  0  0  0  0  0  0  0  0
   -3.4211    0.5789   -0.2725 C   0  0  1  0  0  0  0  0  0  0  0  0
   -3.0133    0.8907    1.1881 C   0  0  0  0  0  0  0  0  0  0  0  0
   -2.5977   -0.3436    1.9956 C   0  0  0  0  0  0  0  0  0  0  0  0
   -4.1180    1.6413    1.9324 C   0  0  0  0  0  0  0  0  0  0  0  0
   -2.2807    0.0708   -1.0478 N   0  0  0  0  0  0  0  0  0  0  0  0
   -1.4405    0.9092   -1.7499 C   0  0  0  0  0  0  0  0  0  0  0  0
   -1.5071    2.1262   -1.5980 O   0  0  0  0  0  0  0  0  0  0  0  0
   -0.4612    0.1978   -2.7384 C   0  0  1  0  0  0  0  0  0  0  0  0
   -1.1796   -0.6469   -3.8457 C   0  0  0  0  0  0  0  0  0  0  0  0
   -1.3145   -2.1244   -3.4606 C   0  0  0  0  0  0  0  0  0  0  0  0
   -2.5322   -0.0846   -4.2940 C   0  0  0  0  0  0  0  0  0  0  0  0
    0.5495    1.0928   -3.3732 N   0  0  0  0  0  0  0  0  0  0  0  0
    0.0873    2.2595   -4.1200 C   0  0  0  0  0  0  0  0  0  0  0  0
    1.7788    0.5778   -3.7922 C   0  0  0  0  0  0  0  0  0  0  0  0
    2.4395    1.0763   -4.6990 O   0  0  0  0  0  0  0  0  0  0  0  0
    2.1450   -0.5568   -3.1325 O   0  0  0  0  0  0  0  0  0  0  0  0
    3.2226   -1.2939   -3.7297 C   0  0  0  0  0  0  0  0  0  0  0  0
    4.5976   -0.9212   -3.2242 C   0  0  0  0  0  0  0  0  0  0  0  0
    5.3034    0.1346   -3.8139 C   0  0  0  0  0  0  0  0  0  0  0  0
    6.6206    0.4207   -3.4406 C   0  0  0  0  0  0  0  0  0  0  0  0
    7.2738   -0.3571   -2.4849 C   0  0  0  0  0  0  0  0  0  0  0  0
    6.5659   -1.3971   -1.8712 C   0  0  0  0  0  0  0  0  0  0  0  0
    5.2374   -1.6701   -2.2282 C   0  0  0  0  0  0  0  0  0  0  0  0
    8.6412   -0.2071   -2.1799 N   0  0  0  0  0  0  0  0  0  0  0  0
    9.4748    0.8206   -2.6014 C   0  0  0  0  0  0  0  0  0  0  0  0
    9.1043    1.9179   -3.0094 O   0  0  0  0  0  0  0  0  0  0  0  0
   10.9560    0.3833   -2.6657 C   0  0  1  0  0  0  0  0  0  0  0  0
   11.9178    1.5430   -2.9748 C   0  0  0  0  0  0  0  0  0  0  0  0
   11.9385    1.9868   -4.4477 C   0  0  0  0  0  0  0  0  0  0  0  0
   12.8153    1.1120   -5.3487 C   0  0  0  0  0  0  0  0  0  0  0  0
   12.2742   -0.2105   -5.5524 N   0  0  0  0  0  0  0  0  0  0  0  0
   11.3309   -0.4663   -6.5002 C   0  0  0  0  0  0  0  0  0  0  0  0
   10.8374    0.3538   -7.2580 O   0  0  0  0  0  0  0  0  0  0  0  0
   10.9591   -1.7700   -6.5205 N   0  0  0  0  0  0  0  0  0  0  0  0
   11.3801   -0.2911   -1.4330 N   0  0  0  0  0  0  0  0  0  0  0  0
   12.3078   -1.3188   -1.4936 C   0  0  0  0  0  0  0  0  0  0  0  0
   12.5360   -1.9305   -2.5346 O   0  0  0  0  0  0  0  0  0  0  0  0
   12.9708   -1.6514   -0.1371 C   0  0  1  0  0  0  0  0  0  0  0  0
   14.0183   -2.7855   -0.2389 C   0  0  0  0  0  0  0  0  0  0  0  0
   15.2934   -2.3801   -0.9894 C   0  0  0  0  0  0  0  0  0  0  0  0
   14.3908   -3.3082    1.1523 C   0  0  0  0  0  0  0  0  0  0  0  0
   13.5474   -0.4226    0.4210 N   0  0  0  0  0  0  0  0  0  0  0  0
   13.1421    0.1217    1.6158 C   0  0  0  0  0  0  0  0  0  0  0  0
   12.1815   -0.3016    2.2442 O   0  0  0  0  0  0  0  0  0  0  0  0
   13.9592    1.3290    2.0326 C   0  0  0  0  0  0  0  0  0  0  0  0
   14.0028    1.5431    3.5482 C   0  0  0  0  0  0  0  0  0  0  0  0
   14.8918    0.5066    4.2464 C   0  0  0  0  0  0  0  0  0  0  0  0
   14.9612    0.6870    5.7648 C   0  0  0  0  0  0  0  0  0  0  0  0
   15.6963    1.9606    6.1921 C   0  0  0  0  0  0  0  0  0  0  0  0
   15.8524    2.0316    7.6306 N   0  0  0  0  0  0  0  0  0  0  0  0
   14.9483    2.5797    8.4790 C   0  0  0  0  0  0  0  0  0  0  0  0
   13.8872    3.1199    8.2271 O   0  0  0  0  0  0  0  0  0  0  0  0
   15.4744    2.4088    9.8387 C   0  0  0  0  0  0  0  0  0  0  0  0
   16.6347    1.7571    9.7448 C   0  0  0  0  0  0  0  0  0  0  0  0
   16.8846    1.4907    8.3235 C   0  0  0  0  0  0  0  0  0  0  0  0
   17.8557    0.8852    7.9102 O   0  0  0  0  0  0  0  0  0  0  0  0
   -5.4220   -2.9602   -4.8110 H   0  0  0  0  0  0  0  0  0  0  0  0
   -4.4089   -4.1149   -3.9452 H   0  0  0  0  0  0  0  0  0  0  0  0
   -6.1701   -4.2749   -3.8759 H   0  0  0  0  0  0  0  0  0  0  0  0
   -4.5419   -1.9510   -2.7417 H   0  0  0  0  0  0  0  0  0  0  0  0
   -5.1244   -3.3232   -1.8053 H   0  0  0  0  0  0  0  0  0  0  0  0
   -7.4847   -2.6914   -2.4675 H   0  0  0  0  0  0  0  0  0  0  0  0
   -7.8830   -0.3850   -3.3991 H   0  0  0  0  0  0  0  0  0  0  0  0
   -7.1162   -1.5000   -4.5169 H   0  0  0  0  0  0  0  0  0  0  0  0
   -6.1392   -0.2624   -3.7166 H   0  0  0  0  0  0  0  0  0  0  0  0
   -7.7735   -0.6105   -1.1470 H   0  0  0  0  0  0  0  0  0  0  0  0
   -6.6910   -1.6180    1.0899 H   0  0  0  0  0  0  0  0  0  0  0  0
   -8.8301   -2.8794    1.3898 H   0  0  0  0  0  0  0  0  0  0  0  0
   -9.0269   -1.2333    0.8413 H   0  0  0  0  0  0  0  0  0  0  0  0
  -11.4734   -3.3388   -2.3574 H   0  0  0  0  0  0  0  0  0  0  0  0
  -10.1273   -2.6205   -3.2702 H   0  0  0  0  0  0  0  0  0  0  0  0
  -12.8717   -1.4962   -2.7457 H   0  0  0  0  0  0  0  0  0  0  0  0
  -11.7991   -1.1639   -4.1057 H   0  0  0  0  0  0  0  0  0  0  0  0
  -10.4416    0.3217   -2.8161 H   0  0  0  0  0  0  0  0  0  0  0  0
  -12.0304    0.7450   -2.2148 H   0  0  0  0  0  0  0  0  0  0  0  0
  -10.0364    0.0070   -0.5356 H   0  0  0  0  0  0  0  0  0  0  0  0
  -11.4250   -1.1943    1.0510 H   0  0  0  0  0  0  0  0  0  0  0  0
  -11.8632    1.4080    0.3077 H   0  0  0  0  0  0  0  0  0  0  0  0
  -13.9109    0.4990   -1.1978 H   0  0  0  0  0  0  0  0  0  0  0  0
  -14.7543    0.4240    0.3539 H   0  0  0  0  0  0  0  0  0  0  0  0
  -14.1045    1.9537   -0.2403 H   0  0  0  0  0  0  0  0  0  0  0  0
  -13.7764    2.5159    1.7527 H   0  0  0  0  0  0  0  0  0  0  0  0
  -13.3330    1.5619    4.5307 H   0  0  0  0  0  0  0  0  0  0  0  0
  -16.0628    1.8481    3.1480 H   0  0  0  0  0  0  0  0  0  0  0  0
  -15.2702    0.3178    3.5298 H   0  0  0  0  0  0  0  0  0  0  0  0
  -15.7990    1.3717    4.8373 H   0  0  0  0  0  0  0  0  0  0  0  0
  -14.5955    4.1001    3.3407 H   0  0  0  0  0  0  0  0  0  0  0  0
  -13.2399    3.1590    6.7546 H   0  0  0  0  0  0  0  0  0  0  0  0
  -14.4652    3.6463    8.8456 H   0  0  0  0  0  0  0  0  0  0  0  0
  -16.7262    4.6627    8.7640 H   0  0  0  0  0  0  0  0  0  0  0  0
  -17.7620    5.2020    6.5769 H   0  0  0  0  0  0  0  0  0  0  0  0
  -16.5626    4.7211    4.4805 H   0  0  0  0  0  0  0  0  0  0  0  0
  -12.2181    3.6011    3.6287 H   0  0  0  0  0  0  0  0  0  0  0  0
  -14.0650   -1.7920    1.5103 H   0  0  0  0  0  0  0  0  0  0  0  0
  -12.7506   -3.0037    1.3496 H   0  0  0  0  0  0  0  0  0  0  0  0
  -14.2361   -3.1504    0.3893 H   0  0  0  0  0  0  0  0  0  0  0  0
   -5.7556   -4.9832    1.0860 H   0  0  0  0  0  0  0  0  0  0  0  0
   -5.4477   -3.3984    1.8190 H   0  0  0  0  0  0  0  0  0  0  0  0
   -7.0664   -4.1603    1.9507 H   0  0  0  0  0  0  0  0  0  0  0  0
   -7.2458    1.3729   -0.5424 H   0  0  0  0  0  0  0  0  0  0  0  0
   -5.5982    1.9688   -0.5141 H   0  0  0  0  0  0  0  0  0  0  0  0
   -6.2953    1.4239   -2.0535 H   0  0  0  0  0  0  0  0  0  0  0  0
   -3.7222    1.5013   -0.7709 H   0  0  0  0  0  0  0  0  0  0  0  0
   -2.1386    1.5541    1.1536 H   0  0  0  0  0  0  0  0  0  0  0  0
   -1.8430   -0.9355    1.4703 H   0  0  0  0  0  0  0  0  0  0  0  0
   -2.1666   -0.0412    2.9563 H   0  0  0  0  0  0  0  0  0  0  0  0
   -3.4524   -0.9904    2.2169 H   0  0  0  0  0  0  0  0  0  0  0  0
   -4.3611    2.5796    1.4234 H   0  0  0  0  0  0  0  0  0  0  0  0
   -3.7969    1.8927    2.9488 H   0  0  0  0  0  0  0  0  0  0  0  0
   -5.0315    1.0423    2.0097 H   0  0  0  0  0  0  0  0  0  0  0  0
   -2.1584   -0.9356   -1.0606 H   0  0  0  0  0  0  0  0  0  0  0  0
    0.1055   -0.4918   -2.0967 H   0  0  0  0  0  0  0  0  0  0  0  0
   -0.5417   -0.6464   -4.7402 H   0  0  0  0  0  0  0  0  0  0  0  0
   -0.3342   -2.5491   -3.2232 H   0  0  0  0  0  0  0  0  0  0  0  0
   -1.9695   -2.2763   -2.6010 H   0  0  0  0  0  0  0  0  0  0  0  0
   -1.7272   -2.7020   -4.2954 H   0  0  0  0  0  0  0  0  0  0  0  0
   -2.8810   -0.6058   -5.1936 H   0  0  0  0  0  0  0  0  0  0  0  0
   -3.3023   -0.2071   -3.5314 H   0  0  0  0  0  0  0  0  0  0  0  0
   -2.4691    0.9797   -4.5393 H   0  0  0  0  0  0  0  0  0  0  0  0
    0.9277    2.9090   -4.3775 H   0  0  0  0  0  0  0  0  0  0  0  0
   -0.3721    1.9224   -5.0532 H   0  0  0  0  0  0  0  0  0  0  0  0
   -0.6271    2.8534   -3.5534 H   0  0  0  0  0  0  0  0  0  0  0  0
    3.0320   -2.3496   -3.5004 H   0  0  0  0  0  0  0  0  0  0  0  0
    3.1872   -1.2357   -4.8262 H   0  0  0  0  0  0  0  0  0  0  0  0
    4.8482    0.7333   -4.6010 H   0  0  0  0  0  0  0  0  0  0  0  0
    7.1231    1.2311   -3.9627 H   0  0  0  0  0  0  0  0  0  0  0  0
    7.0408   -2.0220   -1.1219 H   0  0  0  0  0  0  0  0  0  0  0  0
    4.7169   -2.4955   -1.7452 H   0  0  0  0  0  0  0  0  0  0  0  0
    9.0804   -0.9346   -1.6233 H   0  0  0  0  0  0  0  0  0  0  0  0
   10.9934   -0.3598   -3.4646 H   0  0  0  0  0  0  0  0  0  0  0  0
   12.9413    1.2801   -2.6784 H   0  0  0  0  0  0  0  0  0  0  0  0
   11.6401    2.4083   -2.3577 H   0  0  0  0  0  0  0  0  0  0  0  0
   12.3510    3.0039   -4.4794 H   0  0  0  0  0  0  0  0  0  0  0  0
   10.9212    2.0494   -4.8514 H   0  0  0  0  0  0  0  0  0  0  0  0
   13.8157    0.9971   -4.9190 H   0  0  0  0  0  0  0  0  0  0  0  0
   12.9285    1.5974   -6.3262 H   0  0  0  0  0  0  0  0  0  0  0  0
   12.7641   -1.0049   -5.1608 H   0  0  0  0  0  0  0  0  0  0  0  0
   10.9342   -2.2469   -5.6303 H   0  0  0  0  0  0  0  0  0  0  0  0
   10.1525   -1.9331   -7.1106 H   0  0  0  0  0  0  0  0  0  0  0  0
   11.3261    0.2304   -0.5614 H   0  0  0  0  0  0  0  0  0  0  0  0
   12.1540   -1.9964    0.5102 H   0  0  0  0  0  0  0  0  0  0  0  0
   13.5647   -3.6214   -0.7894 H   0  0  0  0  0  0  0  0  0  0  0  0
   15.8681   -1.6293   -0.4355 H   0  0  0  0  0  0  0  0  0  0  0  0
   15.0700   -1.9736   -1.9792 H   0  0  0  0  0  0  0  0  0  0  0  0
   15.9443   -3.2501   -1.1304 H   0  0  0  0  0  0  0  0  0  0  0  0
   14.8891   -2.5377    1.7522 H   0  0  0  0  0  0  0  0  0  0  0  0
   15.0714   -4.1639    1.0742 H   0  0  0  0  0  0  0  0  0  0  0  0
   13.4999   -3.6403    1.6973 H   0  0  0  0  0  0  0  0  0  0  0  0
   14.2993    0.0182   -0.0929 H   0  0  0  0  0  0  0  0  0  0  0  0
   13.4980    2.2045    1.5595 H   0  0  0  0  0  0  0  0  0  0  0  0
   14.9801    1.2453    1.6413 H   0  0  0  0  0  0  0  0  0  0  0  0
   14.3993    2.5464    3.7332 H   0  0  0  0  0  0  0  0  0  0  0  0
   12.9919    1.5116    3.9704 H   0  0  0  0  0  0  0  0  0  0  0  0
   15.9059    0.5455    3.8308 H   0  0  0  0  0  0  0  0  0  0  0  0
   14.5062   -0.4992    4.0396 H   0  0  0  0  0  0  0  0  0  0  0  0
   15.4784   -0.1805    6.1914 H   0  0  0  0  0  0  0  0  0  0  0  0
   13.9502    0.6815    6.1896 H   0  0  0  0  0  0  0  0  0  0  0  0
   15.1420    2.8477    5.8651 H   0  0  0  0  0  0  0  0  0  0  0  0
   16.6937    1.9858    5.7355 H   0  0  0  0  0  0  0  0  0  0  0  0
   14.9707    2.7644   10.7209 H   0  0  0  0  0  0  0  0  0  0  0  0
   17.3001    1.4557   10.5362 H   0  0  0  0  0  0  0  0  0  0  0  0
  1  2  1  0
  2  3  1  0
  3  4  1  0
  3  5  1  0
  5  6  1  0
  6  7  1  0
  7  8  1  0
  8  9  2  0
  8 10  1  0
 10 11  1  0
 11 12  1  0
 12 13  1  0
 13 14  1  0
 14 15  1  0
 15 16  1  0
 16 17  1  0
 16 18  1  0
 18 19  2  0
 18 20  1  0
 20 21  1  0
 21 22  1  0
 21 23  1  0
 23 24  1  0
 24 25  2  0
 25 26  1  0
 26 27  2  0
 27 28  1  0
 28 29  2  0
 23 30  1  0
 15 31  1  0
 31 32  1  0
  6 33  1  0
 33 34  1  0
  5 35  1  0
 35 36  1  0
 35 37  1  0
 37 38  2  0
 37 39  1  0
 39 40  1  0
 40 41  1  0
 40 42  1  0
 39 43  1  0
 43 44  1  0
 44 45  2  0
 44 46  1  0
 46 47  1  0
 47 48  1  0
 47 49  1  0
 46 50  1  0
 50 51  1  0
 50 52  1  0
 52 53  2  0
 52 54  1  0
 54 55  1  0
 55 56  1  0
 56 57  1  0
 57 58  2  0
 58 59  1  0
 59 60  2  0
 60 61  1  0
 59 62  1  0
 62 63  1  0
 63 64  2  0
 63 65  1  0
 65 66  1  0
 66 67  1  0
 67 68  1  0
 68 69  1  0
 69 70  1  0
 70 71  2  0
 70 72  1  0
 65 73  1  0
 73 74  1  0
 74 75  2  0
 74 76  1  0
 76 77  1  0
 77 78  1  0
 77 79  1  0
 76 80  1  0
 80 81  1  0
 81 82  2  0
 81 83  1  0
 83 84  1  0
 84 85  1  0
 85 86  1  0
 86 87  1  0
 87 88  1  0
 88 89  1  0
 89 90  2  0
 89 91  1  0
 91 92  2  0
 92 93  1  0
 93 94  2  0
 14 10  1  0
 29 24  1  0
 61 56  2  0
 93 88  1  0
  1 95  1  0
  1 96  1  0
  1 97  1  0
  2 98  1  0
  2 99  1  0
  3100  1  1
  4101  1  0
  4102  1  0
  4103  1  0
  5104  1  6
  6105  1  1
  7106  1  0
  7107  1  0
 11108  1  0
 11109  1  0
 12110  1  0
 12111  1  0
 13112  1  0
 13113  1  0
 14114  1  1
 15115  1  1
 16116  1  6
 17117  1  0
 17118  1  0
 17119  1  0
 20120  1  0
 21121  1  1
 22122  1  0
 22123  1  0
 22124  1  0
 23125  1  6
 25126  1  0
 26127  1  0
 27128  1  0
 28129  1  0
 29130  1  0
 30131  1  0
 32132  1  0
 32133  1  0
 32134  1  0
 34135  1  0
 34136  1  0
 34137  1  0
 36138  1  0
 36139  1  0
 36140  1  0
 39141  1  6
 40142  1  0
 41143  1  0
 41144  1  0
 41145  1  0
 42146  1  0
 42147  1  0
 42148  1  0
 43149  1  0
 46150  1  1
 47151  1  0
 48152  1  0
 48153  1  0
 48154  1  0
 49155  1  0
 49156  1  0
 49157  1  0
 51158  1  0
 51159  1  0
 51160  1  0
 55161  1  0
 55162  1  0
 57163  1  0
 58164  1  0
 60165  1  0
 61166  1  0
 62167  1  0
 65168  1  6
 66169  1  0
 66170  1  0
 67171  1  0
 67172  1  0
 68173  1  0
 68174  1  0
 69175  1  0
 72176  1  0
 72177  1  0
 73178  1  0
 76179  1  1
 77180  1  0
 78181  1  0
 78182  1  0
 78183  1  0
 79184  1  0
 79185  1  0
 79186  1  0
 80187  1  0
 83188  1  0
 83189  1  0
 84190  1  0
 84191  1  0
 85192  1  0
 85193  1  0
 86194  1  0
 86195  1  0
 87196  1  0
 87197  1  0
 91198  1  0
 92199  1  0
M  END
$$$$

     RDKit          3D

199202  0  0  0  0  0  0  0  0999 V2000
   -7.5789   -2.5872    3.4013 C   0  0  0  0  0  0  0  0  0  0  0  0
   -6.1477   -2.9314    3.0206 C   0  0  0  0  0  0  0  0  0  0  0  0
   -5.8974   -2.9853    1.4968 C   0  0  2  0  0  0  0  0  0  0  0  0
   -4.8471   -4.0866    1.2309 C   0  0  0  0  0  0  0  0  0  0  0  0
   -5.4409   -1.6568    0.7785 C   0  0  1  0  0  0  0  0  0  0  0  0
   -6.4160   -1.1906   -0.3784 C   0  0  1  0  0  0  0  0  0  0  0  0
   -7.9009   -0.9292   -0.0234 C   0  0  0  0  0  0  0  0  0  0  0  0
   -8.3376    0.4935    0.3170 C   0  0  0  0  0  0  0  0  0  0  0  0
   -7.7451    1.4863   -0.1049 O   0  0  0  0  0  0  0  0  0  0  0  0
   -9.4723    0.6713    1.0979 N   0  0  0  0  0  0  0  0  0  0  0  0
   -9.7208    2.0093    1.6315 C   0  0  0  0  0  0  0  0  0  0  0  0
  -10.6949    1.8240    2.7872 C   0  0  0  0  0  0  0  0  0  0  0  0
  -10.5222    0.3556    3.1548 C   0  0  0  0  0  0  0  0  0  0  0  0
  -10.3113   -0.3234    1.7858 C   0  0  1  0  0  0  0  0  0  0  0  0
  -11.6783   -0.5907    1.0731 C   0  0  1  0  0  0  0  0  0  0  0  0
  -11.5302   -1.2689   -0.3105 C   0  0  1  0  0  0  0  0  0  0  0  0
  -11.1320   -2.7434   -0.2235 C   0  0  0  0  0  0  0  0  0  0  0  0
  -12.8322   -1.1360   -1.0983 C   0  0  0  0  0  0  0  0  0  0  0  0
  -13.6054   -2.0674   -1.3005 O   0  0  0  0  0  0  0  0  0  0  0  0
  -13.1173    0.1355   -1.5469 N   0  0  0  0  0  0  0  0  0  0  0  0
  -14.3100    0.4341   -2.3671 C   0  0  2  0  0  0  0  0  0  0  0  0
  -14.0574    1.7365   -3.1305 C   0  0  0  0  0  0  0  0  0  0  0  0
  -15.6138    0.4992   -1.5017 C   0  0  1  0  0  0  0  0  0  0  0  0
  -16.8487    0.8937   -2.2862 C   0  0  0  0  0  0  0  0  0  0  0  0
  -17.4042    0.0240   -3.2392 C   0  0  0  0  0  0  0  0  0  0  0  0
  -18.5325    0.3969   -3.9719 C   0  0  0  0  0  0  0  0  0  0  0  0
  -19.1189    1.6438   -3.7645 C   0  0  0  0  0  0  0  0  0  0  0  0
  -18.5849    2.5142   -2.8152 C   0  0  0  0  0  0  0  0  0  0  0  0
  -17.4568    2.1420   -2.0794 C   0  0  0  0  0  0  0  0  0  0  0  0
  -15.9221   -0.7466   -0.8641 O   0  0  0  0  0  0  0  0  0  0  0  0
  -12.4373   -1.4417    1.9524 O   0  0  0  0  0  0  0  0  0  0  0  0
  -13.7714   -0.9910    2.1696 C   0  0  0  0  0  0  0  0  0  0  0  0
   -5.9010   -0.1266   -1.1896 O   0  0  0  0  0  0  0  0  0  0  0  0
   -4.6634   -0.3908   -1.8347 C   0  0  0  0  0  0  0  0  0  0  0  0
   -4.8796   -0.6134    1.6713 N   0  0  0  0  0  0  0  0  0  0  0  0
   -5.7733    0.3965    2.2105 C   0  0  0  0  0  0  0  0  0  0  0  0
   -3.4800   -0.5418    1.8221 C   0  0  0  0  0  0  0  0  0  0  0  0
   -2.7283   -1.3662    1.2919 O   0  0  0  0  0  0  0  0  0  0  0  0
   -2.8852    0.6577    2.6159 C   0  0  1  0  0  0  0  0  0  0  0  0
   -2.2562    0.2276    3.9647 C   0  0  0  0  0  0  0  0  0  0  0  0
   -1.9643    1.4504    4.8478 C   0  0  0  0  0  0  0  0  0  0  0  0
   -3.1522   -0.7320    4.7617 C   0  0  0  0  0  0  0  0  0  0  0  0
   -2.0430    1.4324    1.6867 N   0  0  0  0  0  0  0  0  0  0  0  0
   -0.6619    1.5380    1.6632 C   0  0  0  0  0  0  0  0  0  0  0  0
    0.0872    0.9915    2.4652 O   0  0  0  0  0  0  0  0  0  0  0  0
   -0.1796    2.5030    0.5432 C   0  0  1  0  0  0  0  0  0  0  0  0
    1.1823    3.2175    0.7413 C   0  0  0  0  0  0  0  0  0  0  0  0
    2.4200    2.3315    0.7274 C   0  0  0  0  0  0  0  0  0  0  0  0
    1.1685    4.0572    2.0260 C   0  0  0  0  0  0  0  0  0  0  0  0
   -0.4271    1.9594   -0.8118 N   0  0  0  0  0  0  0  0  0  0  0  0
   -1.0158    2.8636   -1.7838 C   0  0  0  0  0  0  0  0  0  0  0  0
    0.1826    0.8045   -1.2979 C   0  0  0  0  0  0  0  0  0  0  0  0
    0.1754    0.4907   -2.4837 O   0  0  0  0  0  0  0  0  0  0  0  0
    0.7545    0.0586   -0.3236 O   0  0  0  0  0  0  0  0  0  0  0  0
    1.4030   -1.1558   -0.7349 C   0  0  0  0  0  0  0  0  0  0  0  0
    2.8971   -0.9412   -0.7919 C   0  0  0  0  0  0  0  0  0  0  0  0
    3.6486   -0.8922    0.3894 C   0  0  0  0  0  0  0  0  0  0  0  0
    5.0124   -0.5785    0.3632 C   0  0  0  0  0  0  0  0  0  0  0  0
    5.6587   -0.3177   -0.8456 C   0  0  0  0  0  0  0  0  0  0  0  0
    4.9214   -0.4178   -2.0346 C   0  0  0  0  0  0  0  0  0  0  0  0
    3.5512   -0.7090   -2.0076 C   0  0  0  0  0  0  0  0  0  0  0  0
    7.0059    0.0870   -0.9494 N   0  0  0  0  0  0  0  0  0  0  0  0
    7.8829    0.3978    0.0806 C   0  0  0  0  0  0  0  0  0  0  0  0
    7.6577    0.2468    1.2808 O   0  0  0  0  0  0  0  0  0  0  0  0
    9.1984    1.0629   -0.4272 C   0  0  1  0  0  0  0  0  0  0  0  0
    9.9659    1.6671    0.7646 C   0  0  0  0  0  0  0  0  0  0  0  0
   11.1145    2.6177    0.4027 C   0  0  0  0  0  0  0  0  0  0  0  0
   12.4117    1.9698   -0.0842 C   0  0  0  0  0  0  0  0  0  0  0  0
   13.0396    1.1266    0.9094 N   0  0  0  0  0  0  0  0  0  0  0  0
   12.8108   -0.2081    1.0113 C   0  0  0  0  0  0  0  0  0  0  0  0
   12.0955   -0.8592    0.2630 O   0  0  0  0  0  0  0  0  0  0  0  0
   13.4515   -0.7677    2.0596 N   0  0  0  0  0  0  0  0  0  0  0  0
   10.0101    0.1131   -1.1831 N   0  0  0  0  0  0  0  0  0  0  0  0
    9.7410   -0.2446   -2.4881 C   0  0  0  0  0  0  0  0  0  0  0  0
    8.7703    0.2168   -3.0826 O   0  0  0  0  0  0  0  0  0  0  0  0
   10.7087   -1.3119   -3.0642 C   0  0  1  0  0  0  0  0  0  0  0  0
   10.4618   -1.7279   -4.5315 C   0  0  0  0  0  0  0  0  0  0  0  0
   10.5785   -0.5726   -5.5298 C   0  0  0  0  0  0  0  0  0  0  0  0
    9.1285   -2.4585   -4.7045 C   0  0  0  0  0  0  0  0  0  0  0  0
   12.0819   -0.8322   -2.8873 N   0  0  0  0  0  0  0  0  0  0  0  0
   13.1373   -1.6739   -2.6338 C   0  0  0  0  0  0  0  0  0  0  0  0
   13.0305   -2.8932   -2.5666 O   0  0  0  0  0  0  0  0  0  0  0  0
   14.4570   -0.9316   -2.4950 C   0  0  0  0  0  0  0  0  0  0  0  0
   15.5971   -1.8499   -2.0588 C   0  0  0  0  0  0  0  0  0  0  0  0
   16.9499   -1.1345   -2.0111 C   0  0  0  0  0  0  0  0  0  0  0  0
   17.1331   -0.1398   -0.8581 C   0  0  0  0  0  0  0  0  0  0  0  0
   17.1224   -0.8166    0.5151 C   0  0  0  0  0  0  0  0  0  0  0  0
   17.6250    0.0638    1.5556 N   0  0  0  0  0  0  0  0  0  0  0  0
   16.8673    0.8283    2.3812 C   0  0  0  0  0  0  0  0  0  0  0  0
   15.6541    0.9318    2.4357 O   0  0  0  0  0  0  0  0  0  0  0  0
   17.7874    1.5444    3.2716 C   0  0  0  0  0  0  0  0  0  0  0  0
   19.0281    1.1794    2.9523 C   0  0  0  0  0  0  0  0  0  0  0  0
   18.9426    0.2263    1.8397 C   0  0  0  0  0  0  0  0  0  0  0  0
   19.9080   -0.2944    1.3163 O   0  0  0  0  0  0  0  0  0  0  0  0
   -7.7264   -2.7338    4.4779 H   0  0  0  0  0  0  0  0  0  0  0  0
   -7.8191   -1.5479    3.1799 H   0  0  0  0  0  0  0  0  0  0  0  0
   -8.2935   -3.2300    2.8766 H   0  0  0  0  0  0  0  0  0  0  0  0
   -5.9501   -3.9220    3.4518 H   0  0  0  0  0  0  0  0  0  0  0  0
   -5.4568   -2.2512    3.5246 H   0  0  0  0  0  0  0  0  0  0  0  0
   -6.8084   -3.3543    1.0073 H   0  0  0  0  0  0  0  0  0  0  0  0
   -4.6648   -4.2060    0.1571 H   0  0  0  0  0  0  0  0  0  0  0  0
   -3.8955   -3.8580    1.7199 H   0  0  0  0  0  0  0  0  0  0  0  0
   -5.2001   -5.0536    1.6037 H   0  0  0  0  0  0  0  0  0  0  0  0
   -4.5747   -1.9728    0.1853 H   0  0  0  0  0  0  0  0  0  0  0  0
   -6.4696   -2.0658   -1.0461 H   0  0  0  0  0  0  0  0  0  0  0  0
   -8.2036   -1.6256    0.7537 H   0  0  0  0  0  0  0  0  0  0  0  0
   -8.4871   -1.1831   -0.9155 H   0  0  0  0  0  0  0  0  0  0  0  0
  -10.1327    2.6469    0.8437 H   0  0  0  0  0  0  0  0  0  0  0  0
   -8.7774    2.4431    1.9819 H   0  0  0  0  0  0  0  0  0  0  0  0
  -11.7218    2.0226    2.4599 H   0  0  0  0  0  0  0  0  0  0  0  0
  -10.4779    2.4949    3.6257 H   0  0  0  0  0  0  0  0  0  0  0  0
   -9.6157    0.2413    3.7621 H   0  0  0  0  0  0  0  0  0  0  0  0
  -11.3617   -0.0357    3.7344 H   0  0  0  0  0  0  0  0  0  0  0  0
   -9.7916   -1.2688    1.9410 H   0  0  0  0  0  0  0  0  0  0  0  0
  -12.1959    0.3694    0.9467 H   0  0  0  0  0  0  0  0  0  0  0  0
  -10.7709   -0.7400   -0.8973 H   0  0  0  0  0  0  0  0  0  0  0  0
  -10.1898   -2.8786    0.3134 H   0  0  0  0  0  0  0  0  0  0  0  0
  -11.0045   -3.1657   -1.2265 H   0  0  0  0  0  0  0  0  0  0  0  0
  -11.8959   -3.3435    0.2836 H   0  0  0  0  0  0  0  0  0  0  0  0
  -12.4110    0.8571   -1.4545 H   0  0  0  0  0  0  0  0  0  0  0  0
  -14.4037   -0.3878   -3.0902 H   0  0  0  0  0  0  0  0  0  0  0  0
  -13.9909    2.5880   -2.4444 H   0  0  0  0  0  0  0  0  0  0  0  0
  -14.8480    1.9378   -3.8592 H   0  0  0  0  0  0  0  0  0  0  0  0
  -13.1115    1.6812   -3.6810 H   0  0  0  0  0  0  0  0  0  0  0  0
  -15.4537    1.2149   -0.6845 H   0  0  0  0  0  0  0  0  0  0  0  0
  -16.9675   -0.9594   -3.4004 H   0  0  0  0  0  0  0  0  0  0  0  0
  -18.9578   -0.2906   -4.6985 H   0  0  0  0  0  0  0  0  0  0  0  0
  -19.9992    1.9329   -4.3325 H   0  0  0  0  0  0  0  0  0  0  0  0
  -19.0511    3.4808   -2.6448 H   0  0  0  0  0  0  0  0  0  0  0  0
  -17.0621    2.8323   -1.3390 H   0  0  0  0  0  0  0  0  0  0  0  0
  -15.1996   -1.3775   -1.0636 H   0  0  0  0  0  0  0  0  0  0  0  0
  -14.3296   -0.9553    1.2324 H   0  0  0  0  0  0  0  0  0  0  0  0
  -13.7667   -0.0028    2.6408 H   0  0  0  0  0  0  0  0  0  0  0  0
  -14.2648   -1.6944    2.8442 H   0  0  0  0  0  0  0  0  0  0  0  0
   -4.5366    0.3396   -2.6389 H   0  0  0  0  0  0  0  0  0  0  0  0
   -4.6415   -1.3930   -2.2702 H   0  0  0  0  0  0  0  0  0  0  0  0
   -3.8350   -0.2604   -1.1351 H   0  0  0  0  0  0  0  0  0  0  0  0
   -5.7351    1.2746    1.5629 H   0  0  0  0  0  0  0  0  0  0  0  0
   -5.4859    0.6749    3.2254 H   0  0  0  0  0  0  0  0  0  0  0  0
   -6.7855    0.0122    2.2732 H   0  0  0  0  0  0  0  0  0  0  0  0
   -3.6701    1.3787    2.8421 H   0  0  0  0  0  0  0  0  0  0  0  0
   -1.3210   -0.3155    3.7863 H   0  0  0  0  0  0  0  0  0  0  0  0
   -1.3076    2.1701    4.3507 H   0  0  0  0  0  0  0  0  0  0  0  0
   -2.8905    1.9737    5.1129 H   0  0  0  0  0  0  0  0  0  0  0  0
   -1.4733    1.1464    5.7783 H   0  0  0  0  0  0  0  0  0  0  0  0
   -4.1472   -0.3066    4.9332 H   0  0  0  0  0  0  0  0  0  0  0  0
   -2.7098   -0.9523    5.7410 H   0  0  0  0  0  0  0  0  0  0  0  0
   -3.2660   -1.6889    4.2431 H   0  0  0  0  0  0  0  0  0  0  0  0
   -2.4971    1.6802    0.8152 H   0  0  0  0  0  0  0  0  0  0  0  0
   -0.9089    3.3258    0.6278 H   0  0  0  0  0  0  0  0  0  0  0  0
    1.3001    3.9266   -0.0890 H   0  0  0  0  0  0  0  0  0  0  0  0
    3.3204    2.9147    0.9577 H   0  0  0  0  0  0  0  0  0  0  0  0
    2.3585    1.5287    1.4660 H   0  0  0  0  0  0  0  0  0  0  0  0
    2.5767    1.9058   -0.2649 H   0  0  0  0  0  0  0  0  0  0  0  0
    0.3207    4.7499    2.0302 H   0  0  0  0  0  0  0  0  0  0  0  0
    1.1023    3.4310    2.9211 H   0  0  0  0  0  0  0  0  0  0  0  0
    2.0816    4.6572    2.1061 H   0  0  0  0  0  0  0  0  0  0  0  0
   -1.2789    2.3478   -2.7128 H   0  0  0  0  0  0  0  0  0  0  0  0
   -1.9264    3.3028   -1.3655 H   0  0  0  0  0  0  0  0  0  0  0  0
   -0.2957    3.6539   -2.0133 H   0  0  0  0  0  0  0  0  0  0  0  0
    1.0197   -1.5424   -1.6867 H   0  0  0  0  0  0  0  0  0  0  0  0
    1.1747   -1.9206    0.0158 H   0  0  0  0  0  0  0  0  0  0  0  0
    3.1624   -1.0521    1.3503 H   0  0  0  0  0  0  0  0  0  0  0  0
    5.5347   -0.5265    1.3134 H   0  0  0  0  0  0  0  0  0  0  0  0
    5.3966   -0.2253   -2.9951 H   0  0  0  0  0  0  0  0  0  0  0  0
    2.9939   -0.7285   -2.9406 H   0  0  0  0  0  0  0  0  0  0  0  0
    7.3625    0.2383   -1.8948 H   0  0  0  0  0  0  0  0  0  0  0  0
    8.9020    1.8735   -1.1062 H   0  0  0  0  0  0  0  0  0  0  0  0
   10.3162    0.8796    1.4391 H   0  0  0  0  0  0  0  0  0  0  0  0
    9.2521    2.2611    1.3519 H   0  0  0  0  0  0  0  0  0  0  0  0
   10.7698    3.3339   -0.3539 H   0  0  0  0  0  0  0  0  0  0  0  0
   11.3489    3.2090    1.2983 H   0  0  0  0  0  0  0  0  0  0  0  0
   13.1371    2.7596   -0.3135 H   0  0  0  0  0  0  0  0  0  0  0  0
   12.2513    1.4050   -1.0041 H   0  0  0  0  0  0  0  0  0  0  0  0
   13.5873    1.5510    1.6482 H   0  0  0  0  0  0  0  0  0  0  0  0
   13.4132   -1.7771    2.1149 H   0  0  0  0  0  0  0  0  0  0  0  0
   14.2829   -0.3072    2.4117 H   0  0  0  0  0  0  0  0  0  0  0  0
   10.6916   -0.4583   -0.6655 H   0  0  0  0  0  0  0  0  0  0  0  0
   10.5879   -2.2027   -2.4328 H   0  0  0  0  0  0  0  0  0  0  0  0
   11.2448   -2.4494   -4.8018 H   0  0  0  0  0  0  0  0  0  0  0  0
   10.4938   -0.9463   -6.5565 H   0  0  0  0  0  0  0  0  0  0  0  0
    9.7929    0.1759   -5.3904 H   0  0  0  0  0  0  0  0  0  0  0  0
   11.5463   -0.0673   -5.4447 H   0  0  0  0  0  0  0  0  0  0  0  0
    8.2710   -1.7946   -4.5616 H   0  0  0  0  0  0  0  0  0  0  0  0
    9.0539   -2.8808   -5.7135 H   0  0  0  0  0  0  0  0  0  0  0  0
    9.0400   -3.2862   -3.9931 H   0  0  0  0  0  0  0  0  0  0  0  0
   12.2453    0.1626   -2.9510 H   0  0  0  0  0  0  0  0  0  0  0  0
   14.3268   -0.1152   -1.7819 H   0  0  0  0  0  0  0  0  0  0  0  0
   14.6906   -0.5001   -3.4730 H   0  0  0  0  0  0  0  0  0  0  0  0
   15.3639   -2.3076   -1.0923 H   0  0  0  0  0  0  0  0  0  0  0  0
   15.6777   -2.6779   -2.7749 H   0  0  0  0  0  0  0  0  0  0  0  0
   17.7423   -1.8929   -1.9457 H   0  0  0  0  0  0  0  0  0  0  0  0
   17.1139   -0.6073   -2.9594 H   0  0  0  0  0  0  0  0  0  0  0  0
   18.0948    0.3665   -1.0056 H   0  0  0  0  0  0  0  0  0  0  0  0
   16.3696    0.6447   -0.8954 H   0  0  0  0  0  0  0  0  0  0  0  0
   17.7566   -1.7098    0.4987 H   0  0  0  0  0  0  0  0  0  0  0  0
   16.1050   -1.1208    0.7771 H   0  0  0  0  0  0  0  0  0  0  0  0
   17.4625    2.2249    4.0406 H   0  0  0  0  0  0  0  0  0  0  0  0
   19.9574    1.4933    3.3930 H   0  0  0  0  0  0  0  0  0  0  0  0
  1  2  1  0
  2  3  1  0
  3  4  1  0
  3  5  1  0
  5  6  1  0
  6  7  1  0
  7  8  1  0
  8  9  2  0
  8 10  1  0
 10 11  1  0
 11 12  1  0
 12 13  1  0
 13 14  1  0
 14 15  1  0
 15 16  1  0
 16 17  1  0
 16 18  1  0
 18 19  2  0
 18 20  1  0
 20 21  1  0
 21 22  1  0
 21 23  1  0
 23 24  1  0
 24 25  2  0
 25 26  1  0
 26 27  2  0
 27 28  1  0
 28 29  2  0
 23 30  1  0
 15 31  1  0
 31 32  1  0
  6 33  1  0
 33 34  1  0
  5 35  1  0
 35 36  1  0
 35 37  1  0
 37 38  2  0
 37 39  1  0
 39 40  1  0
 40 41  1  0
 40 42  1  0
 39 43  1  0
 43 44  1  0
 44 45  2  0
 44 46  1  0
 46 47  1  0
 47 48  1  0
 47 49  1  0
 46 50  1  0
 50 51  1  0
 50 52  1  0
 52 53  2  0
 52 54  1  0
 54 55  1  0
 55 56  1  0
 56 57  1  0
 57 58  2  0
 58 59  1  0
 59 60  2  0
 60 61  1  0
 59 62  1  0
 62 63  1  0
 63 64  2  0
 63 65  1  0
 65 66  1  0
 66 67  1  0
 67 68  1  0
 68 69  1  0
 69 70  1  0
 70 71  2  0
 70 72  1  0
 65 73  1  0
 73 74  1  0
 74 75  2  0
 74 76  1  0
 76 77  1  0
 77 78  1  0
 77 79  1  0
 76 80  1  0
 80 81  1  0
 81 82  2  0
 81 83  1  0
 83 84  1  0
 84 85  1  0
 85 86  1  0
 86 87  1  0
 87 88  1  0
 88 89  1  0
 89 90  2  0
 89 91  1  0
 91 92  2  0
 92 93  1  0
 93 94  2  0
 14 10  1  0
 29 24  1  0
 61 56  2  0
 93 88  1  0
  1 95  1  0
  1 96  1  0
  1 97  1  0
  2 98  1  0
  2 99  1  0
  3100  1  6
  4101  1  0
  4102  1  0
  4103  1  0
  5104  1  6
  6105  1  6
  7106  1  0
  7107  1  0
 11108  1  0
 11109  1  0
 12110  1  0
 12111  1  0
 13112  1  0
 13113  1  0
 14114  1  1
 15115  1  6
 16116  1  6
 17117  1  0
 17118  1  0
 17119  1  0
 20120  1  0
 21121  1  6
 22122  1  0
 22123  1  0
 22124  1  0
 23125  1  1
 25126  1  0
 26127  1  0
 27128  1  0
 28129  1  0
 29130  1  0
 30131  1  0
 32132  1  0
 32133  1  0
 32134  1  0
 34135  1  0
 34136  1  0
 34137  1  0
 36138  1  0
 36139  1  0
 36140  1  0
 39141  1  1
 40142  1  0
 41143  1  0
 41144  1  0
 41145  1  0
 42146  1  0
 42147  1  0
 42148  1  0
 43149  1  0
 46150  1  6
 47151  1  0
 48152  1  0
 48153  1  0
 48154  1  0
 49155  1  0
 49156  1  0
 49157  1  0
 51158  1  0
 51159  1  0
 51160  1  0
 55161  1  0
 55162  1  0
 57163  1  0
 58164  1  0
 60165  1  0
 61166  1  0
 62167  1  0
 65168  1  6
 66169  1  0
 66170  1  0
 67171  1  0
 67172  1  0
 68173  1  0
 68174  1  0
 69175  1  0
 72176  1  0
 72177  1  0
 73178  1  0
 76179  1  1
 77180  1  0
 78181  1  0
 78182  1  0
 78183  1  0
 79184  1  0
 79185  1  0
 79186  1  0
 80187  1  0
 83188  1  0
 83189  1  0
 84190  1  0
 84191  1  0
 85192  1  0
 85193  1  0
 86194  1  0
 86195  1  0
 87196  1  0
 87197  1  0
 91198  1  0
 92199  1  0
M  END
$$$$

     RDKit          3D

199202  0  0  0  0  0  0  0  0999 V2000
   -7.4487   -4.9463    2.0128 C   0  0  0  0  0  0  0  0  0  0  0  0
   -6.6134   -3.9423    1.2290 C   0  0  0  0  0  0  0  0  0  0  0  0
   -6.9448   -3.8791   -0.2826 C   0  0  2  0  0  0  0  0  0  0  0  0
   -6.7814   -5.2767   -0.9088 C   0  0  0  0  0  0  0  0  0  0  0  0
   -6.0633   -2.8308   -1.0498 C   0  0  1  0  0  0  0  0  0  0  0  0
   -6.4610   -2.5904   -2.5624 C   0  0  1  0  0  0  0  0  0  0  0  0
   -7.9418   -2.7369   -2.9599 C   0  0  0  0  0  0  0  0  0  0  0  0
   -8.9475   -1.6700   -2.5521 C   0  0  0  0  0  0  0  0  0  0  0  0
   -8.6750   -0.4700   -2.5777 O   0  0  0  0  0  0  0  0  0  0  0  0
  -10.2268   -2.1055   -2.2277 N   0  0  0  0  0  0  0  0  0  0  0  0
  -10.7365   -3.4546   -2.4556 C   0  0  0  0  0  0  0  0  0  0  0  0
  -12.2188   -3.2769   -2.7209 C   0  0  0  0  0  0  0  0  0  0  0  0
  -12.5699   -2.0674   -1.8747 C   0  0  0  0  0  0  0  0  0  0  0  0
  -11.3434   -1.1520   -2.0251 C   0  0  1  0  0  0  0  0  0  0  0  0
  -11.1463   -0.1405   -0.8488 C   0  0  1  0  0  0  0  0  0  0  0  0
  -12.0484    1.1179   -0.9437 C   0  0  1  0  0  0  0  0  0  0  0  0
  -11.7256    1.9797   -2.1681 C   0  0  0  0  0  0  0  0  0  0  0  0
  -13.5375    0.7803   -0.8979 C   0  0  0  0  0  0  0  0  0  0  0  0
  -14.2781    0.8861   -1.8714 O   0  0  0  0  0  0  0  0  0  0  0  0
  -13.9654    0.3647    0.3423 N   0  0  0  0  0  0  0  0  0  0  0  0
  -15.3313   -0.0567    0.6912 C   0  0  2  0  0  0  0  0  0  0  0  0
  -15.5184   -1.5410    0.3616 C   0  0  0  0  0  0  0  0  0  0  0  0
  -16.5071    0.8086    0.1221 C   0  0  1  0  0  0  0  0  0  0  0  0
  -16.4155    2.3218    0.2766 C   0  0  0  0  0  0  0  0  0  0  0  0
  -17.1178    3.1555   -0.6135 C   0  0  0  0  0  0  0  0  0  0  0  0
  -17.0838    4.5456   -0.4868 C   0  0  0  0  0  0  0  0  0  0  0  0
  -16.3566    5.1311    0.5448 C   0  0  0  0  0  0  0  0  0  0  0  0
  -15.6720    4.3251    1.4516 C   0  0  0  0  0  0  0  0  0  0  0  0
  -15.7093    2.9327    1.3243 C   0  0  0  0  0  0  0  0  0  0  0  0
  -16.7558    0.4606   -1.2467 O   0  0  0  0  0  0  0  0  0  0  0  0
  -11.3717   -0.7981    0.4205 O   0  0  0  0  0  0  0  0  0  0  0  0
  -10.5108   -0.3358    1.4548 C   0  0  0  0  0  0  0  0  0  0  0  0
   -5.9100   -1.3999   -3.1425 O   0  0  0  0  0  0  0  0  0  0  0  0
   -4.5054   -1.4580   -3.3599 C   0  0  0  0  0  0  0  0  0  0  0  0
   -5.8014   -1.6030   -0.2415 N   0  0  0  0  0  0  0  0  0  0  0  0
   -6.8151   -0.5626   -0.2474 C   0  0  0  0  0  0  0  0  0  0  0  0
   -4.5371   -1.4648    0.3457 C   0  0  0  0  0  0  0  0  0  0  0  0
   -3.6692   -2.3295    0.1811 O   0  0  0  0  0  0  0  0  0  0  0  0
   -4.2157   -0.2080    1.2095 C   0  0  1  0  0  0  0  0  0  0  0  0
   -4.8608   -0.2132    2.6247 C   0  0  0  0  0  0  0  0  0  0  0  0
   -4.6206   -1.4476    3.4970 C   0  0  0  0  0  0  0  0  0  0  0  0
   -4.5290    1.0616    3.4083 C   0  0  0  0  0  0  0  0  0  0  0  0
   -2.7797    0.1133    1.1076 N   0  0  0  0  0  0  0  0  0  0  0  0
   -1.7617   -0.5629    1.7554 C   0  0  0  0  0  0  0  0  0  0  0  0
   -1.9498   -1.3944    2.6367 O   0  0  0  0  0  0  0  0  0  0  0  0
   -0.3383   -0.2334    1.2151 C   0  0  1  0  0  0  0  0  0  0  0  0
    0.6158    0.2836    2.3303 C   0  0  0  0  0  0  0  0  0  0  0  0
    1.0637   -0.7829    3.3305 C   0  0  0  0  0  0  0  0  0  0  0  0
    0.0102    1.4793    3.0738 C   0  0  0  0  0  0  0  0  0  0  0  0
    0.2521   -1.3398    0.4194 N   0  0  0  0  0  0  0  0  0  0  0  0
   -0.1818   -2.7095    0.6707 C   0  0  0  0  0  0  0  0  0  0  0  0
    1.2151   -1.1323   -0.5530 C   0  0  0  0  0  0  0  0  0  0  0  0
    1.6986   -2.0246   -1.2405 O   0  0  0  0  0  0  0  0  0  0  0  0
    1.5788    0.1719   -0.6585 O   0  0  0  0  0  0  0  0  0  0  0  0
    2.6095    0.4596   -1.6116 C   0  0  0  0  0  0  0  0  0  0  0  0
    3.9049    0.7864   -0.9080 C   0  0  0  0  0  0  0  0  0  0  0  0
    4.5377    2.0153   -1.1188 C   0  0  0  0  0  0  0  0  0  0  0  0
    5.7678    2.2937   -0.5141 C   0  0  0  0  0  0  0  0  0  0  0  0
    6.3907    1.3501    0.3105 C   0  0  0  0  0  0  0  0  0  0  0  0
    5.7617    0.1267    0.5305 C   0  0  0  0  0  0  0  0  0  0  0  0
    4.5309   -0.1553   -0.0771 C   0  0  0  0  0  0  0  0  0  0  0  0
    7.6481    1.6929    0.8348 N   0  0  0  0  0  0  0  0  0  0  0  0
    8.4584    0.9656    1.6978 C   0  0  0  0  0  0  0  0  0  0  0  0
    8.1351   -0.0483    2.3071 O   0  0  0  0  0  0  0  0  0  0  0  0
    9.8089    1.6873    1.9255 C   0  0  1  0  0  0  0  0  0  0  0  0
   10.9056    0.7968    2.5281 C   0  0  0  0  0  0  0  0  0  0  0  0
   11.2928   -0.4050    1.6535 C   0  0  0  0  0  0  0  0  0  0  0  0
   12.6361   -1.0112    2.0558 C   0  0  0  0  0  0  0  0  0  0  0  0
   13.7345   -0.1068    1.7897 N   0  0  0  0  0  0  0  0  0  0  0  0
   15.0207   -0.4812    2.0482 C   0  0  0  0  0  0  0  0  0  0  0  0
   15.3705   -1.5201    2.5889 O   0  0  0  0  0  0  0  0  0  0  0  0
   15.9027    0.4464    1.6049 N   0  0  0  0  0  0  0  0  0  0  0  0
   10.2377    2.3204    0.6687 N   0  0  0  0  0  0  0  0  0  0  0  0
   11.0999    3.4022    0.6576 C   0  0  0  0  0  0  0  0  0  0  0  0
   11.3430    4.0461    1.6716 O   0  0  0  0  0  0  0  0  0  0  0  0
   11.5400    3.8279   -0.7765 C   0  0  1  0  0  0  0  0  0  0  0  0
   12.7848    4.7516   -0.8028 C   0  0  0  0  0  0  0  0  0  0  0  0
   13.3687    4.9089   -2.2155 C   0  0  0  0  0  0  0  0  0  0  0  0
   12.4491    6.1574   -0.2783 C   0  0  0  0  0  0  0  0  0  0  0  0
   11.6430    2.6560   -1.6659 N   0  0  0  0  0  0  0  0  0  0  0  0
   12.6021    1.6779   -1.4734 C   0  0  0  0  0  0  0  0  0  0  0  0
   13.2690    1.5961   -0.4495 O   0  0  0  0  0  0  0  0  0  0  0  0
   12.6878    0.7035   -2.6362 C   0  0  0  0  0  0  0  0  0  0  0  0
   13.6286   -0.4779   -2.4026 C   0  0  0  0  0  0  0  0  0  0  0  0
   15.0682   -0.2611   -2.8847 C   0  0  0  0  0  0  0  0  0  0  0  0
   15.8248    0.8363   -2.1342 C   0  0  0  0  0  0  0  0  0  0  0  0
   17.3117    0.9127   -2.5043 C   0  0  0  0  0  0  0  0  0  0  0  0
   18.0722   -0.2113   -1.9938 N   0  0  0  0  0  0  0  0  0  0  0  0
   18.5609   -0.3089   -0.7301 C   0  0  0  0  0  0  0  0  0  0  0  0
   18.5153    0.5003    0.1792 O   0  0  0  0  0  0  0  0  0  0  0  0
   19.2118   -1.6182   -0.6220 C   0  0  0  0  0  0  0  0  0  0  0  0
   19.1084   -2.2253   -1.8048 C   0  0  0  0  0  0  0  0  0  0  0  0
   18.3773   -1.3267   -2.7042 C   0  0  0  0  0  0  0  0  0  0  0  0
   18.1198   -1.5906   -3.8647 O   0  0  0  0  0  0  0  0  0  0  0  0
   -8.5192   -4.7906    1.8400 H   0  0  0  0  0  0  0  0  0  0  0  0
   -7.2587   -4.8339    3.0851 H   0  0  0  0  0  0  0  0  0  0  0  0
   -7.1959   -5.9768    1.7465 H   0  0  0  0  0  0  0  0  0  0  0  0
   -6.7868   -2.9598    1.6814 H   0  0  0  0  0  0  0  0  0  0  0  0
   -5.5519   -4.1824    1.3696 H   0  0  0  0  0  0  0  0  0  0  0  0
   -7.9962   -3.5788   -0.3643 H   0  0  0  0  0  0  0  0  0  0  0  0
   -7.5294   -5.9733   -0.5197 H   0  0  0  0  0  0  0  0  0  0  0  0
   -5.7887   -5.6871   -0.6924 H   0  0  0  0  0  0  0  0  0  0  0  0
   -6.8979   -5.2702   -1.9951 H   0  0  0  0  0  0  0  0  0  0  0  0
   -5.0883   -3.3284   -1.1433 H   0  0  0  0  0  0  0  0  0  0  0  0
   -5.9927   -3.4267   -3.1050 H   0  0  0  0  0  0  0  0  0  0  0  0
   -8.2817   -3.7180   -2.6333 H   0  0  0  0  0  0  0  0  0  0  0  0
   -7.9926   -2.7486   -4.0587 H   0  0  0  0  0  0  0  0  0  0  0  0
  -10.5597   -4.0306   -1.5403 H   0  0  0  0  0  0  0  0  0  0  0  0
  -10.2504   -3.9468   -3.3019 H   0  0  0  0  0  0  0  0  0  0  0  0
  -12.8023   -4.1655   -2.4646 H   0  0  0  0  0  0  0  0  0  0  0  0
  -12.3869   -3.0502   -3.7813 H   0  0  0  0  0  0  0  0  0  0  0  0
  -12.7169   -2.3901   -0.8381 H   0  0  0  0  0  0  0  0  0  0  0  0
  -13.4916   -1.5991   -2.2264 H   0  0  0  0  0  0  0  0  0  0  0  0
  -11.4107   -0.6085   -2.9749 H   0  0  0  0  0  0  0  0  0  0  0  0
  -10.1099    0.2134   -0.8609 H   0  0  0  0  0  0  0  0  0  0  0  0
  -11.8596    1.7453   -0.0620 H   0  0  0  0  0  0  0  0  0  0  0  0
  -10.6606    2.2352   -2.1975 H   0  0  0  0  0  0  0  0  0  0  0  0
  -11.9901    1.4876   -3.1088 H   0  0  0  0  0  0  0  0  0  0  0  0
  -12.2933    2.9171   -2.1309 H   0  0  0  0  0  0  0  0  0  0  0  0
  -13.2283    0.0095    0.9449 H   0  0  0  0  0  0  0  0  0  0  0  0
  -15.3602    0.0342    1.7845 H   0  0  0  0  0  0  0  0  0  0  0  0
  -16.4964   -1.8964    0.7043 H   0  0  0  0  0  0  0  0  0  0  0  0
  -14.7489   -2.1441    0.8585 H   0  0  0  0  0  0  0  0  0  0  0  0
  -15.4404   -1.7325   -0.7143 H   0  0  0  0  0  0  0  0  0  0  0  0
  -17.4138    0.5058    0.6618 H   0  0  0  0  0  0  0  0  0  0  0  0
  -17.7010    2.7182   -1.4233 H   0  0  0  0  0  0  0  0  0  0  0  0
  -17.6285    5.1661   -1.1936 H   0  0  0  0  0  0  0  0  0  0  0  0
  -16.3290    6.2136    0.6433 H   0  0  0  0  0  0  0  0  0  0  0  0
  -15.1130    4.7833    2.2632 H   0  0  0  0  0  0  0  0  0  0  0  0
  -15.1728    2.3391    2.0596 H   0  0  0  0  0  0  0  0  0  0  0  0
  -15.9242    0.6851   -1.7223 H   0  0  0  0  0  0  0  0  0  0  0  0
   -9.4813   -0.6390    1.2556 H   0  0  0  0  0  0  0  0  0  0  0  0
  -10.5668    0.7494    1.5666 H   0  0  0  0  0  0  0  0  0  0  0  0
  -10.8284   -0.7979    2.3929 H   0  0  0  0  0  0  0  0  0  0  0  0
   -4.2383   -2.3291   -3.9645 H   0  0  0  0  0  0  0  0  0  0  0  0
   -3.9605   -1.4774   -2.4160 H   0  0  0  0  0  0  0  0  0  0  0  0
   -4.2085   -0.5563   -3.9016 H   0  0  0  0  0  0  0  0  0  0  0  0
   -7.7982   -1.0275   -0.1792 H   0  0  0  0  0  0  0  0  0  0  0  0
   -6.7185    0.1262    0.5875 H   0  0  0  0  0  0  0  0  0  0  0  0
   -6.7142    0.0214   -1.1629 H   0  0  0  0  0  0  0  0  0  0  0  0
   -4.6557    0.6439    0.6727 H   0  0  0  0  0  0  0  0  0  0  0  0
   -5.9486   -0.2022    2.4745 H   0  0  0  0  0  0  0  0  0  0  0  0
   -3.7297   -1.3482    4.1243 H   0  0  0  0  0  0  0  0  0  0  0  0
   -4.5446   -2.3651    2.9104 H   0  0  0  0  0  0  0  0  0  0  0  0
   -5.4594   -1.5776    4.1908 H   0  0  0  0  0  0  0  0  0  0  0  0
   -4.8255    1.9514    2.8458 H   0  0  0  0  0  0  0  0  0  0  0  0
   -3.4589    1.1356    3.6255 H   0  0  0  0  0  0  0  0  0  0  0  0
   -5.0638    1.0778    4.3651 H   0  0  0  0  0  0  0  0  0  0  0  0
   -2.5149    0.5194    0.2161 H   0  0  0  0  0  0  0  0  0  0  0  0
   -0.4555    0.6037    0.5127 H   0  0  0  0  0  0  0  0  0  0  0  0
    1.5293    0.6507    1.8439 H   0  0  0  0  0  0  0  0  0  0  0  0
    0.2253   -1.1928    3.8994 H   0  0  0  0  0  0  0  0  0  0  0  0
    1.5782   -1.6073    2.8283 H   0  0  0  0  0  0  0  0  0  0  0  0
    1.7704   -0.3563    4.0507 H   0  0  0  0  0  0  0  0  0  0  0  0
    0.7482    1.9278    3.7478 H   0  0  0  0  0  0  0  0  0  0  0  0
   -0.3110    2.2557    2.3718 H   0  0  0  0  0  0  0  0  0  0  0  0
   -0.8538    1.1868    3.6797 H   0  0  0  0  0  0  0  0  0  0  0  0
   -1.2112   -2.8231    0.3292 H   0  0  0  0  0  0  0  0  0  0  0  0
   -0.1088   -2.9320    1.7383 H   0  0  0  0  0  0  0  0  0  0  0  0
    0.4307   -3.4370    0.1313 H   0  0  0  0  0  0  0  0  0  0  0  0
    2.7757   -0.3413   -2.3415 H   0  0  0  0  0  0  0  0  0  0  0  0
    2.2635    1.3273   -2.1858 H   0  0  0  0  0  0  0  0  0  0  0  0
    4.0844    2.7654   -1.7625 H   0  0  0  0  0  0  0  0  0  0  0  0
    6.2313    3.2574   -0.7063 H   0  0  0  0  0  0  0  0  0  0  0  0
    6.2082   -0.6398    1.1577 H   0  0  0  0  0  0  0  0  0  0  0  0
    4.0715   -1.1276    0.0992 H   0  0  0  0  0  0  0  0  0  0  0  0
    8.0335    2.5865    0.5518 H   0  0  0  0  0  0  0  0  0  0  0  0
    9.5997    2.4916    2.6442 H   0  0  0  0  0  0  0  0  0  0  0  0
   11.7868    1.4203    2.7190 H   0  0  0  0  0  0  0  0  0  0  0  0
   10.5765    0.4227    3.5059 H   0  0  0  0  0  0  0  0  0  0  0  0
   11.3361   -0.1186    0.5976 H   0  0  0  0  0  0  0  0  0  0  0  0
   10.5192   -1.1765    1.7403 H   0  0  0  0  0  0  0  0  0  0  0  0
   12.8155   -1.9274    1.4825 H   0  0  0  0  0  0  0  0  0  0  0  0
   12.6509   -1.2751    3.1189 H   0  0  0  0  0  0  0  0  0  0  0  0
   13.6457    0.5211    0.9918 H   0  0  0  0  0  0  0  0  0  0  0  0
   15.6073    1.4108    1.6084 H   0  0  0  0  0  0  0  0  0  0  0  0
   16.8808    0.2878    1.8270 H   0  0  0  0  0  0  0  0  0  0  0  0
   10.2714    1.7340   -0.1575 H   0  0  0  0  0  0  0  0  0  0  0  0
   10.6852    4.3907   -1.1774 H   0  0  0  0  0  0  0  0  0  0  0  0
   13.5654    4.3276   -0.1582 H   0  0  0  0  0  0  0  0  0  0  0  0
   12.6050    5.2523   -2.9214 H   0  0  0  0  0  0  0  0  0  0  0  0
   13.7812    3.9674   -2.5885 H   0  0  0  0  0  0  0  0  0  0  0  0
   14.1863    5.6371   -2.2208 H   0  0  0  0  0  0  0  0  0  0  0  0
   13.3301    6.8066   -0.3213 H   0  0  0  0  0  0  0  0  0  0  0  0
   12.1163    6.1412    0.7624 H   0  0  0  0  0  0  0  0  0  0  0  0
   11.6598    6.6222   -0.8793 H   0  0  0  0  0  0  0  0  0  0  0  0
   11.3185    2.7895   -2.6161 H   0  0  0  0  0  0  0  0  0  0  0  0
   11.6743    0.3070   -2.7846 H   0  0  0  0  0  0  0  0  0  0  0  0
   12.9661    1.2538   -3.5419 H   0  0  0  0  0  0  0  0  0  0  0  0
   13.2320   -1.3321   -2.9654 H   0  0  0  0  0  0  0  0  0  0  0  0
   13.6294   -0.7804   -1.3494 H   0  0  0  0  0  0  0  0  0  0  0  0
   15.5909   -1.2161   -2.7683 H   0  0  0  0  0  0  0  0  0  0  0  0
   15.0661   -0.0335   -3.9574 H   0  0  0  0  0  0  0  0  0  0  0  0
   15.7279    0.6754   -1.0583 H   0  0  0  0  0  0  0  0  0  0  0  0
   15.3687    1.8061   -2.3624 H   0  0  0  0  0  0  0  0  0  0  0  0
   17.7348    1.8266   -2.0699 H   0  0  0  0  0  0  0  0  0  0  0  0
   17.4288    0.9668   -3.5921 H   0  0  0  0  0  0  0  0  0  0  0  0
   19.6757   -1.9784    0.2782 H   0  0  0  0  0  0  0  0  0  0  0  0
   19.4657   -3.1965   -2.0971 H   0  0  0  0  0  0  0  0  0  0  0  0
  1  2  1  0
  2  3  1  0
  3  4  1  0
  3  5  1  0
  5  6  1  0
  6  7  1  0
  7  8  1  0
  8  9  2  0
  8 10  1  0
 10 11  1  0
 11 12  1  0
 12 13  1  0
 13 14  1  0
 14 15  1  0
 15 16  1  0
 16 17  1  0
 16 18  1  0
 18 19  2  0
 18 20  1  0
 20 21  1  0
 21 22  1  0
 21 23  1  0
 23 24  1  0
 24 25  2  0
 25 26  1  0
 26 27  2  0
 27 28  1  0
 28 29  2  0
 23 30  1  0
 15 31  1  0
 31 32  1  0
  6 33  1  0
 33 34  1  0
  5 35  1  0
 35 36  1  0
 35 37  1  0
 37 38  2  0
 37 39  1  0
 39 40  1  0
 40 41  1  0
 40 42  1  0
 39 43  1  0
 43 44  1  0
 44 45  2  0
 44 46  1  0
 46 47  1  0
 47 48  1  0
 47 49  1  0
 46 50  1  0
 50 51  1  0
 50 52  1  0
 52 53  2  0
 52 54  1  0
 54 55  1  0
 55 56  1  0
 56 57  1  0
 57 58  2  0
 58 59  1  0
 59 60  2  0
 60 61  1  0
 59 62  1  0
 62 63  1  0
 63 64  2  0
 63 65  1  0
 65 66  1  0
 66 67  1  0
 67 68  1  0
 68 69  1  0
 69 70  1  0
 70 71  2  0
 70 72  1  0
 65 73  1  0
 73 74  1  0
 74 75  2  0
 74 76  1  0
 76 77  1  0
 77 78  1  0
 77 79  1  0
 76 80  1  0
 80 81  1  0
 81 82  2  0
 81 83  1  0
 83 84  1  0
 84 85  1  0
 85 86  1  0
 86 87  1  0
 87 88  1  0
 88 89  1  0
 89 90  2  0
 89 91  1  0
 91 92  2  0
 92 93  1  0
 93 94  2  0
 14 10  1  0
 29 24  1  0
 61 56  2  0
 93 88  1  0
  1 95  1  0
  1 96  1  0
  1 97  1  0
  2 98  1  0
  2 99  1  0
  3100  1  1
  4101  1  0
  4102  1  0
  4103  1  0
  5104  1  6
  6105  1  6
  7106  1  0
  7107  1  0
 11108  1  0
 11109  1  0
 12110  1  0
 12111  1  0
 13112  1  0
 13113  1  0
 14114  1  6
 15115  1  1
 16116  1  1
 17117  1  0
 17118  1  0
 17119  1  0
 20120  1  0
 21121  1  1
 22122  1  0
 22123  1  0
 22124  1  0
 23125  1  1
 25126  1  0
 26127  1  0
 27128  1  0
 28129  1  0
 29130  1  0
 30131  1  0
 32132  1  0
 32133  1  0
 32134  1  0
 34135  1  0
 34136  1  0
 34137  1  0
 36138  1  0
 36139  1  0
 36140  1  0
 39141  1  6
 40142  1  0
 41143  1  0
 41144  1  0
 41145  1  0
 42146  1  0
 42147  1  0
 42148  1  0
 43149  1  0
 46150  1  6
 47151  1  0
 48152  1  0
 48153  1  0
 48154  1  0
 49155  1  0
 49156  1  0
 49157  1  0
 51158  1  0
 51159  1  0
 51160  1  0
 55161  1  0
 55162  1  0
 57163  1  0
 58164  1  0
 60165  1  0
 61166  1  0
 62167  1  0
 65168  1  1
 66169  1  0
 66170  1  0
 67171  1  0
 67172  1  0
 68173  1  0
 68174  1  0
 69175  1  0
 72176  1  0
 72177  1  0
 73178  1  0
 76179  1  6
 77180  1  0
 78181  1  0
 78182  1  0
 78183  1  0
 79184  1  0
 79185  1  0
 79186  1  0
 80187  1  0
 83188  1  0
 83189  1  0
 84190  1  0
 84191  1  0
 85192  1  0
 85193  1  0
 86194  1  0
 86195  1  0
 87196  1  0
 87197  1  0
 91198  1  0
 92199  1  0
M  END
$$$$

     RDKit          3D

199202  0  0  0  0  0  0  0  0999 V2000
   -5.1316    3.8605    0.2864 C   0  0  0  0  0  0  0  0  0  0  0  0
   -4.4560    2.5886   -0.2186 C   0  0  0  0  0  0  0  0  0  0  0  0
   -4.2160    1.5688    0.9162 C   0  0  2  0  0  0  0  0  0  0  0  0
   -2.7736    1.7147    1.4428 C   0  0  0  0  0  0  0  0  0  0  0  0
   -4.5473    0.0575    0.6519 C   0  0  1  0  0  0  0  0  0  0  0  0
   -6.0967   -0.2479    0.5574 C   0  0  1  0  0  0  0  0  0  0  0  0
   -6.6904   -0.1702   -0.8484 C   0  0  0  0  0  0  0  0  0  0  0  0
   -8.2098   -0.2256   -0.8084 C   0  0  0  0  0  0  0  0  0  0  0  0
   -8.8077   -1.2736   -0.5551 O   0  0  0  0  0  0  0  0  0  0  0  0
   -8.9086    0.9268   -1.1067 N   0  0  0  0  0  0  0  0  0  0  0  0
   -8.3740    2.2515   -1.3709 C   0  0  0  0  0  0  0  0  0  0  0  0
   -9.5662    3.1015   -1.7739 C   0  0  0  0  0  0  0  0  0  0  0  0
  -10.7516    2.3965   -1.1173 C   0  0  0  0  0  0  0  0  0  0  0  0
  -10.3811    0.9051   -1.1599 C   0  0  1  0  0  0  0  0  0  0  0  0
  -10.8758    0.1072   -2.4090 C   0  0  1  0  0  0  0  0  0  0  0  0
  -12.2055   -0.6558   -2.2113 C   0  0  1  0  0  0  0  0  0  0  0  0
  -12.1064   -1.7975   -1.1923 C   0  0  0  0  0  0  0  0  0  0  0  0
  -13.4072    0.2456   -1.9474 C   0  0  0  0  0  0  0  0  0  0  0  0
  -14.2098    0.5165   -2.8402 O   0  0  0  0  0  0  0  0  0  0  0  0
  -13.5413    0.7240   -0.6645 N   0  0  0  0  0  0  0  0  0  0  0  0
  -14.7606    1.4114   -0.2171 C   0  0  2  0  0  0  0  0  0  0  0  0
  -14.7778    2.8519   -0.7413 C   0  0  0  0  0  0  0  0  0  0  0  0
  -14.8810    1.3788    1.3353 C   0  0  1  0  0  0  0  0  0  0  0  0
  -14.9872   -0.0442    1.8694 C   0  0  0  0  0  0  0  0  0  0  0  0
  -16.1904   -0.7549    1.7192 C   0  0  0  0  0  0  0  0  0  0  0  0
  -16.2952   -2.0717    2.1702 C   0  0  0  0  0  0  0  0  0  0  0  0
  -15.2050   -2.7002    2.7714 C   0  0  0  0  0  0  0  0  0  0  0  0
  -14.0078   -2.0070    2.9269 C   0  0  0  0  0  0  0  0  0  0  0  0
  -13.8976   -0.6891    2.4840 C   0  0  0  0  0  0  0  0  0  0  0  0
  -13.7603    2.0388    1.9408 O   0  0  0  0  0  0  0  0  0  0  0  0
  -10.9185    0.9868   -3.5474 O   0  0  0  0  0  0  0  0  0  0  0  0
  -10.8144    0.3165   -4.7941 C   0  0  0  0  0  0  0  0  0  0  0  0
   -6.3301   -1.6036    0.9953 O   0  0  0  0  0  0  0  0  0  0  0  0
   -6.5559   -1.7208    2.3952 C   0  0  0  0  0  0  0  0  0  0  0  0
   -3.7326   -0.6711   -0.3725 N   0  0  0  0  0  0  0  0  0  0  0  0
   -3.4696   -0.0283   -1.6486 C   0  0  0  0  0  0  0  0  0  0  0  0
   -3.4278   -2.0162   -0.0922 C   0  0  0  0  0  0  0  0  0  0  0  0
   -3.4899   -2.4596    1.0631 O   0  0  0  0  0  0  0  0  0  0  0  0
   -2.9813   -2.9860   -1.2247 C   0  0  1  0  0  0  0  0  0  0  0  0
   -4.1439   -3.2769   -2.2192 C   0  0  0  0  0  0  0  0  0  0  0  0
   -3.9167   -2.9036   -3.6892 C   0  0  0  0  0  0  0  0  0  0  0  0
   -4.5533   -4.7578   -2.1435 C   0  0  0  0  0  0  0  0  0  0  0  0
   -1.7002   -2.5601   -1.7770 N   0  0  0  0  0  0  0  0  0  0  0  0
   -0.8492   -3.4411   -2.4108 C   0  0  0  0  0  0  0  0  0  0  0  0
   -1.1929   -4.5484   -2.8033 O   0  0  0  0  0  0  0  0  0  0  0  0
    0.5864   -2.8914   -2.6604 C   0  0  1  0  0  0  0  0  0  0  0  0
    0.6839   -2.1061   -3.9984 C   0  0  0  0  0  0  0  0  0  0  0  0
    0.6311   -3.0675   -5.1995 C   0  0  0  0  0  0  0  0  0  0  0  0
   -0.3805   -1.0124   -4.2017 C   0  0  0  0  0  0  0  0  0  0  0  0
    1.0985   -2.2456   -1.4161 N   0  0  0  0  0  0  0  0  0  0  0  0
    1.1441   -3.0975   -0.2325 C   0  0  0  0  0  0  0  0  0  0  0  0
    1.1259   -0.8853   -1.1530 C   0  0  0  0  0  0  0  0  0  0  0  0
    0.8093   -0.4149   -0.0659 O   0  0  0  0  0  0  0  0  0  0  0  0
    1.5836   -0.1508   -2.1991 O   0  0  0  0  0  0  0  0  0  0  0  0
    1.7614    1.2454   -1.9393 C   0  0  0  0  0  0  0  0  0  0  0  0
    2.9957    1.5030   -1.1126 C   0  0  0  0  0  0  0  0  0  0  0  0
    4.2629    1.1087   -1.5603 C   0  0  0  0  0  0  0  0  0  0  0  0
    5.3916    1.2968   -0.7535 C   0  0  0  0  0  0  0  0  0  0  0  0
    5.2765    1.8879    0.5096 C   0  0  0  0  0  0  0  0  0  0  0  0
    4.0194    2.3167    0.9382 C   0  0  0  0  0  0  0  0  0  0  0  0
    2.8917    2.1270    0.1324 C   0  0  0  0  0  0  0  0  0  0  0  0
    6.4474    1.9961    1.2883 N   0  0  0  0  0  0  0  0  0  0  0  0
    6.5512    2.4251    2.6012 C   0  0  0  0  0  0  0  0  0  0  0  0
    5.6377    2.8850    3.2863 O   0  0  0  0  0  0  0  0  0  0  0  0
    7.9960    2.3721    3.1574 C   0  0  1  0  0  0  0  0  0  0  0  0
    7.9738    1.8682    4.6085 C   0  0  0  0  0  0  0  0  0  0  0  0
    9.3057    2.0218    5.3524 C   0  0  0  0  0  0  0  0  0  0  0  0
    9.6397    3.4754    5.6974 C   0  0  0  0  0  0  0  0  0  0  0  0
   10.8446    3.5609    6.5012 N   0  0  0  0  0  0  0  0  0  0  0  0
   12.0793    3.4516    5.9354 C   0  0  0  0  0  0  0  0  0  0  0  0
   12.3148    3.3730    4.7392 O   0  0  0  0  0  0  0  0  0  0  0  0
   13.0706    3.4283    6.8651 N   0  0  0  0  0  0  0  0  0  0  0  0
    8.8918    1.5481    2.3370 N   0  0  0  0  0  0  0  0  0  0  0  0
    9.9357    2.1125    1.6279 C   0  0  0  0  0  0  0  0  0  0  0  0
   10.1265    3.3285    1.5679 O   0  0  0  0  0  0  0  0  0  0  0  0
   10.8913    1.1046    0.9596 C   0  0  1  0  0  0  0  0  0  0  0  0
   11.0700    1.4187   -0.5441 C   0  0  0  0  0  0  0  0  0  0  0  0
   12.0594    0.4505   -1.2002 C   0  0  0  0  0  0  0  0  0  0  0  0
    9.7265    1.3466   -1.2844 C   0  0  0  0  0  0  0  0  0  0  0  0
   12.1590    1.2341    1.6776 N   0  0  0  0  0  0  0  0  0  0  0  0
   12.5863    0.2573    2.5502 C   0  0  0  0  0  0  0  0  0  0  0  0
   12.0236   -0.8312    2.6695 O   0  0  0  0  0  0  0  0  0  0  0  0
   13.8381    0.6107    3.3244 C   0  0  0  0  0  0  0  0  0  0  0  0
   15.1074    0.5936    2.4796 C   0  0  0  0  0  0  0  0  0  0  0  0
   15.6184   -0.8174    2.1768 C   0  0  0  0  0  0  0  0  0  0  0  0
   15.2835   -1.2864    0.7559 C   0  0  0  0  0  0  0  0  0  0  0  0
   15.8446   -2.6864    0.4925 C   0  0  0  0  0  0  0  0  0  0  0  0
   15.7347   -3.0596   -0.9031 N   0  0  0  0  0  0  0  0  0  0  0  0
   16.6629   -2.7763   -1.8491 C   0  0  0  0  0  0  0  0  0  0  0  0
   17.7266   -2.1949   -1.7335 O   0  0  0  0  0  0  0  0  0  0  0  0
   16.1594   -3.3107   -3.1177 C   0  0  0  0  0  0  0  0  0  0  0  0
   14.9643   -3.8541   -2.8815 C   0  0  0  0  0  0  0  0  0  0  0  0
   14.6648   -3.6823   -1.4565 C   0  0  0  0  0  0  0  0  0  0  0  0
   13.6324   -4.0519   -0.9323 O   0  0  0  0  0  0  0  0  0  0  0  0
   -6.1292    3.6425    0.6836 H   0  0  0  0  0  0  0  0  0  0  0  0
   -4.5349    4.3375    1.0747 H   0  0  0  0  0  0  0  0  0  0  0  0
   -5.2396    4.5808   -0.5312 H   0  0  0  0  0  0  0  0  0  0  0  0
   -5.0640    2.1805   -1.0282 H   0  0  0  0  0  0  0  0  0  0  0  0
   -3.4963    2.8886   -0.6694 H   0  0  0  0  0  0  0  0  0  0  0  0
   -4.8658    1.8578    1.7557 H   0  0  0  0  0  0  0  0  0  0  0  0
   -2.0350    1.4067    0.6930 H   0  0  0  0  0  0  0  0  0  0  0  0
   -2.6230    1.1022    2.3395 H   0  0  0  0  0  0  0  0  0  0  0  0
   -2.5733    2.7549    1.7171 H   0  0  0  0  0  0  0  0  0  0  0  0
   -4.2535   -0.4034    1.6022 H   0  0  0  0  0  0  0  0  0  0  0  0
   -6.6443    0.4428    1.2154 H   0  0  0  0  0  0  0  0  0  0  0  0
   -6.3648    0.7227   -1.3767 H   0  0  0  0  0  0  0  0  0  0  0  0
   -6.3793   -1.0301   -1.4543 H   0  0  0  0  0  0  0  0  0  0  0  0
   -7.6185    2.2241   -2.1626 H   0  0  0  0  0  0  0  0  0  0  0  0
   -7.9158    2.6158   -0.4451 H   0  0  0  0  0  0  0  0  0  0  0  0
   -9.4678    4.1395   -1.4523 H   0  0  0  0  0  0  0  0  0  0  0  0
   -9.6818    3.1016   -2.8621 H   0  0  0  0  0  0  0  0  0  0  0  0
  -11.7004    2.6347   -1.6060 H   0  0  0  0  0  0  0  0  0  0  0  0
  -10.8193    2.7201   -0.0699 H   0  0  0  0  0  0  0  0  0  0  0  0
  -10.7135    0.4178   -0.2365 H   0  0  0  0  0  0  0  0  0  0  0  0
  -10.1212   -0.6561   -2.6295 H   0  0  0  0  0  0  0  0  0  0  0  0
  -12.4515   -1.1511   -3.1599 H   0  0  0  0  0  0  0  0  0  0  0  0
  -11.7853   -1.4675   -0.2038 H   0  0  0  0  0  0  0  0  0  0  0  0
  -13.0769   -2.2884   -1.0658 H   0  0  0  0  0  0  0  0  0  0  0  0
  -11.3967   -2.5518   -1.5383 H   0  0  0  0  0  0  0  0  0  0  0  0
  -12.9678    0.3294    0.0672 H   0  0  0  0  0  0  0  0  0  0  0  0
  -15.6143    0.8817   -0.6579 H   0  0  0  0  0  0  0  0  0  0  0  0
  -15.6576    3.3899   -0.3685 H   0  0  0  0  0  0  0  0  0  0  0  0
  -13.8805    3.4018   -0.4390 H   0  0  0  0  0  0  0  0  0  0  0  0
  -14.8153    2.8721   -1.8368 H   0  0  0  0  0  0  0  0  0  0  0  0
  -15.7788    1.9228    1.6560 H   0  0  0  0  0  0  0  0  0  0  0  0
  -17.0518   -0.2871    1.2475 H   0  0  0  0  0  0  0  0  0  0  0  0
  -17.2305   -2.6140    2.0484 H   0  0  0  0  0  0  0  0  0  0  0  0
  -15.2921   -3.7246    3.1225 H   0  0  0  0  0  0  0  0  0  0  0  0
  -13.1578   -2.4939    3.3936 H   0  0  0  0  0  0  0  0  0  0  0  0
  -12.9539   -0.1623    2.6219 H   0  0  0  0  0  0  0  0  0  0  0  0
  -13.8588    2.9900    1.7552 H   0  0  0  0  0  0  0  0  0  0  0  0
  -10.7664    1.0756   -5.5826 H   0  0  0  0  0  0  0  0  0  0  0  0
  -11.6901   -0.3105   -4.9891 H   0  0  0  0  0  0  0  0  0  0  0  0
   -9.8978   -0.2792   -4.8377 H   0  0  0  0  0  0  0  0  0  0  0  0
   -5.6743   -1.4249    2.9687 H   0  0  0  0  0  0  0  0  0  0  0  0
   -6.7798   -2.7672    2.6164 H   0  0  0  0  0  0  0  0  0  0  0  0
   -7.4165   -1.1160    2.6973 H   0  0  0  0  0  0  0  0  0  0  0  0
   -4.3990    0.1419   -2.1912 H   0  0  0  0  0  0  0  0  0  0  0  0
   -2.8148   -0.6076   -2.2846 H   0  0  0  0  0  0  0  0  0  0  0  0
   -2.9508    0.9128   -1.4818 H   0  0  0  0  0  0  0  0  0  0  0  0
   -2.7479   -3.9244   -0.6980 H   0  0  0  0  0  0  0  0  0  0  0  0
   -5.0277   -2.7203   -1.8805 H   0  0  0  0  0  0  0  0  0  0  0  0
   -3.6389   -1.8542   -3.8171 H   0  0  0  0  0  0  0  0  0  0  0  0
   -3.1438   -3.5261   -4.1506 H   0  0  0  0  0  0  0  0  0  0  0  0
   -4.8420   -3.0676   -4.2599 H   0  0  0  0  0  0  0  0  0  0  0  0
   -5.4767   -4.9362   -2.7106 H   0  0  0  0  0  0  0  0  0  0  0  0
   -4.7471   -5.0578   -1.1059 H   0  0  0  0  0  0  0  0  0  0  0  0
   -3.7716   -5.4093   -2.5552 H   0  0  0  0  0  0  0  0  0  0  0  0
   -1.2129   -1.8624   -1.2177 H   0  0  0  0  0  0  0  0  0  0  0  0
    1.2257   -3.7768   -2.7646 H   0  0  0  0  0  0  0  0  0  0  0  0
    1.6737   -1.6363   -4.0432 H   0  0  0  0  0  0  0  0  0  0  0  0
    0.6911   -2.5104   -6.1389 H   0  0  0  0  0  0  0  0  0  0  0  0
    1.4724   -3.7653   -5.1725 H   0  0  0  0  0  0  0  0  0  0  0  0
   -0.2974   -3.6484   -5.2194 H   0  0  0  0  0  0  0  0  0  0  0  0
    0.0035   -0.2660   -4.9002 H   0  0  0  0  0  0  0  0  0  0  0  0
   -1.3006   -1.4215   -4.6261 H   0  0  0  0  0  0  0  0  0  0  0  0
   -0.6366   -0.4968   -3.2748 H   0  0  0  0  0  0  0  0  0  0  0  0
    0.1622   -3.1242    0.2527 H   0  0  0  0  0  0  0  0  0  0  0  0
    1.8745   -2.6982    0.4849 H   0  0  0  0  0  0  0  0  0  0  0  0
    1.4544   -4.1124   -0.5050 H   0  0  0  0  0  0  0  0  0  0  0  0
    1.8792    1.7445   -2.9070 H   0  0  0  0  0  0  0  0  0  0  0  0
    0.8578    1.6747   -1.4856 H   0  0  0  0  0  0  0  0  0  0  0  0
    4.3755    0.6215   -2.5258 H   0  0  0  0  0  0  0  0  0  0  0  0
    6.3589    0.9685   -1.1308 H   0  0  0  0  0  0  0  0  0  0  0  0
    3.8751    2.8093    1.8980 H   0  0  0  0  0  0  0  0  0  0  0  0
    1.9223    2.4407    0.5154 H   0  0  0  0  0  0  0  0  0  0  0  0
    7.3001    1.6340    0.8932 H   0  0  0  0  0  0  0  0  0  0  0  0
    8.3436    3.4100    3.1346 H   0  0  0  0  0  0  0  0  0  0  0  0
    7.1985    2.3835    5.1863 H   0  0  0  0  0  0  0  0  0  0  0  0
    7.6958    0.8054    4.6127 H   0  0  0  0  0  0  0  0  0  0  0  0
   10.1183    1.5689    4.7729 H   0  0  0  0  0  0  0  0  0  0  0  0
    9.2518    1.4409    6.2818 H   0  0  0  0  0  0  0  0  0  0  0  0
    8.8334    3.9178    6.2893 H   0  0  0  0  0  0  0  0  0  0  0  0
    9.7855    4.0713    4.7912 H   0  0  0  0  0  0  0  0  0  0  0  0
   10.7795    3.2704    7.4677 H   0  0  0  0  0  0  0  0  0  0  0  0
   13.9927    3.4800    6.4445 H   0  0  0  0  0  0  0  0  0  0  0  0
   12.9438    4.0478    7.6508 H   0  0  0  0  0  0  0  0  0  0  0  0
    8.9375    0.5498    2.5262 H   0  0  0  0  0  0  0  0  0  0  0  0
   10.4944    0.0859    1.0751 H   0  0  0  0  0  0  0  0  0  0  0  0
   11.4641    2.4365   -0.6623 H   0  0  0  0  0  0  0  0  0  0  0  0
   12.1510    0.6513   -2.2718 H   0  0  0  0  0  0  0  0  0  0  0  0
   13.0561    0.5535   -0.7667 H   0  0  0  0  0  0  0  0  0  0  0  0
   11.7421   -0.5896   -1.0799 H   0  0  0  0  0  0  0  0  0  0  0  0
    9.0288    2.1088   -0.9197 H   0  0  0  0  0  0  0  0  0  0  0  0
    9.2516    0.3678   -1.1647 H   0  0  0  0  0  0  0  0  0  0  0  0
    9.8631    1.5294   -2.3568 H   0  0  0  0  0  0  0  0  0  0  0  0
   12.4830    2.1835    1.8508 H   0  0  0  0  0  0  0  0  0  0  0  0
   13.9159   -0.0585    4.1870 H   0  0  0  0  0  0  0  0  0  0  0  0
   13.7064    1.6152    3.7310 H   0  0  0  0  0  0  0  0  0  0  0  0
   14.9742    1.1656    1.5540 H   0  0  0  0  0  0  0  0  0  0  0  0
   15.8836    1.1108    3.0558 H   0  0  0  0  0  0  0  0  0  0  0  0
   15.2440   -1.5419    2.9132 H   0  0  0  0  0  0  0  0  0  0  0  0
   16.7144   -0.8120    2.2780 H   0  0  0  0  0  0  0  0  0  0  0  0
   15.7046   -0.5783    0.0325 H   0  0  0  0  0  0  0  0  0  0  0  0
   14.2007   -1.2857    0.5989 H   0  0  0  0  0  0  0  0  0  0  0  0
   15.3041   -3.4200    1.1033 H   0  0  0  0  0  0  0  0  0  0  0  0
   16.9043   -2.7208    0.7704 H   0  0  0  0  0  0  0  0  0  0  0  0
   16.6994   -3.2459   -4.0423 H   0  0  0  0  0  0  0  0  0  0  0  0
   14.2979   -4.3346   -3.5707 H   0  0  0  0  0  0  0  0  0  0  0  0
  1  2  1  0
  2  3  1  0
  3  4  1  0
  3  5  1  0
  5  6  1  0
  6  7  1  0
  7  8  1  0
  8  9  2  0
  8 10  1  0
 10 11  1  0
 11 12  1  0
 12 13  1  0
 13 14  1  0
 14 15  1  0
 15 16  1  0
 16 17  1  0
 16 18  1  0
 18 19  2  0
 18 20  1  0
 20 21  1  0
 21 22  1  0
 21 23  1  0
 23 24  1  0
 24 25  2  0
 25 26  1  0
 26 27  2  0
 27 28  1  0
 28 29  2  0
 23 30  1  0
 15 31  1  0
 31 32  1  0
  6 33  1  0
 33 34  1  0
  5 35  1  0
 35 36  1  0
 35 37  1  0
 37 38  2  0
 37 39  1  0
 39 40  1  0
 40 41  1  0
 40 42  1  0
 39 43  1  0
 43 44  1  0
 44 45  2  0
 44 46  1  0
 46 47  1  0
 47 48  1  0
 47 49  1  0
 46 50  1  0
 50 51  1  0
 50 52  1  0
 52 53  2  0
 52 54  1  0
 54 55  1  0
 55 56  1  0
 56 57  1  0
 57 58  2  0
 58 59  1  0
 59 60  2  0
 60 61  1  0
 59 62  1  0
 62 63  1  0
 63 64  2  0
 63 65  1  0
 65 66  1  0
 66 67  1  0
 67 68  1  0
 68 69  1  0
 69 70  1  0
 70 71  2  0
 70 72  1  0
 65 73  1  0
 73 74  1  0
 74 75  2  0
 74 76  1  0
 76 77  1  0
 77 78  1  0
 77 79  1  0
 76 80  1  0
 80 81  1  0
 81 82  2  0
 81 83  1  0
 83 84  1  0
 84 85  1  0
 85 86  1  0
 86 87  1  0
 87 88  1  0
 88 89  1  0
 89 90  2  0
 89 91  1  0
 91 92  2  0
 92 93  1  0
 93 94  2  0
 14 10  1  0
 29 24  1  0
 61 56  2  0
 93 88  1  0
  1 95  1  0
  1 96  1  0
  1 97  1  0
  2 98  1  0
  2 99  1  0
  3100  1  1
  4101  1  0
  4102  1  0
  4103  1  0
  5104  1  1
  6105  1  1
  7106  1  0
  7107  1  0
 11108  1  0
 11109  1  0
 12110  1  0
 12111  1  0
 13112  1  0
 13113  1  0
 14114  1  1
 15115  1  6
 16116  1  6
 17117  1  0
 17118  1  0
 17119  1  0
 20120  1  0
 21121  1  6
 22122  1  0
 22123  1  0
 22124  1  0
 23125  1  6
 25126  1  0
 26127  1  0
 27128  1  0
 28129  1  0
 29130  1  0
 30131  1  0
 32132  1  0
 32133  1  0
 32134  1  0
 34135  1  0
 34136  1  0
 34137  1  0
 36138  1  0
 36139  1  0
 36140  1  0
 39141  1  1
 40142  1  0
 41143  1  0
 41144  1  0
 41145  1  0
 42146  1  0
 42147  1  0
 42148  1  0
 43149  1  0
 46150  1  6
 47151  1  0
 48152  1  0
 48153  1  0
 48154  1  0
 49155  1  0
 49156  1  0
 49157  1  0
 51158  1  0
 51159  1  0
 51160  1  0
 55161  1  0
 55162  1  0
 57163  1  0
 58164  1  0
 60165  1  0
 61166  1  0
 62167  1  0
 65168  1  1
 66169  1  0
 66170  1  0
 67171  1  0
 67172  1  0
 68173  1  0
 68174  1  0
 69175  1  0
 72176  1  0
 72177  1  0
 73178  1  0
 76179  1  6
 77180  1  0
 78181  1  0
 78182  1  0
 78183  1  0
 79184  1  0
 79185  1  0
 79186  1  0
 80187  1  0
 83188  1  0
 83189  1  0
 84190  1  0
 84191  1  0
 85192  1  0
 85193  1  0
 86194  1  0
 86195  1  0
 87196  1  0
 87197  1  0
 91198  1  0
 92199  1  0
M  END
$$$$

     RDKit          3D

199202  0  0  0  0  0  0  0  0999 V2000
   -9.8729   -1.1170    3.0186 C   0  0  0  0  0  0  0  0  0  0  0  0
   -8.5219   -0.5811    3.4757 C   0  0  0  0  0  0  0  0  0  0  0  0
   -7.4145   -0.7273    2.4044 C   0  0  2  0  0  0  0  0  0  0  0  0
   -6.0331   -0.5973    3.0548 C   0  0  0  0  0  0  0  0  0  0  0  0
   -7.6393    0.1536    1.1259 C   0  0  1  0  0  0  0  0  0  0  0  0
   -7.7352    1.7268    1.2904 C   0  0  1  0  0  0  0  0  0  0  0  0
   -9.1848    2.2404    1.2709 C   0  0  0  0  0  0  0  0  0  0  0  0
   -9.8876    1.9535   -0.0451 C   0  0  0  0  0  0  0  0  0  0  0  0
   -9.2567    1.6264   -1.0434 O   0  0  0  0  0  0  0  0  0  0  0  0
  -11.2577    2.0895   -0.0013 N   0  0  0  0  0  0  0  0  0  0  0  0
  -11.9298    3.0797    0.8289 C   0  0  0  0  0  0  0  0  0  0  0  0
  -13.3246    3.2591    0.2222 C   0  0  0  0  0  0  0  0  0  0  0  0
  -13.2187    2.6162   -1.1600 C   0  0  0  0  0  0  0  0  0  0  0  0
  -12.2254    1.4749   -0.9249 C   0  0  1  0  0  0  0  0  0  0  0  0
  -11.7513    0.6993   -2.1847 C   0  0  1  0  0  0  0  0  0  0  0  0
  -12.5803   -0.6050   -2.3392 C   0  0  1  0  0  0  0  0  0  0  0  0
  -12.2424   -1.3609   -3.6268 C   0  0  0  0  0  0  0  0  0  0  0  0
  -12.3035   -1.5433   -1.1664 C   0  0  0  0  0  0  0  0  0  0  0  0
  -11.2325   -1.5793   -0.5663 O   0  0  0  0  0  0  0  0  0  0  0  0
  -13.3551   -2.3674   -0.8512 N   0  0  0  0  0  0  0  0  0  0  0  0
  -13.2815   -3.3699    0.2143 C   0  0  2  0  0  0  0  0  0  0  0  0
  -12.7563   -4.6769   -0.3842 C   0  0  0  0  0  0  0  0  0  0  0  0
  -14.6683   -3.5649    0.8966 C   0  0  1  0  0  0  0  0  0  0  0  0
  -15.2572   -2.3608    1.6249 C   0  0  0  0  0  0  0  0  0  0  0  0
  -16.6199   -2.3800    1.9837 C   0  0  0  0  0  0  0  0  0  0  0  0
  -17.2038   -1.3163    2.6749 C   0  0  0  0  0  0  0  0  0  0  0  0
  -16.4323   -0.2147    3.0331 C   0  0  0  0  0  0  0  0  0  0  0  0
  -15.0800   -0.1821    2.7048 C   0  0  0  0  0  0  0  0  0  0  0  0
  -14.4952   -1.2481    2.0136 C   0  0  0  0  0  0  0  0  0  0  0  0
  -15.6085   -3.9879   -0.1058 O   0  0  0  0  0  0  0  0  0  0  0  0
  -11.9427    1.4718   -3.3849 O   0  0  0  0  0  0  0  0  0  0  0  0
  -10.8096    2.2783   -3.7042 C   0  0  0  0  0  0  0  0  0  0  0  0
   -7.1534    2.1595    2.5319 O   0  0  0  0  0  0  0  0  0  0  0  0
   -6.4785    3.4080    2.4316 C   0  0  0  0  0  0  0  0  0  0  0  0
   -6.7340   -0.2736    0.0002 N   0  0  0  0  0  0  0  0  0  0  0  0
   -7.2384   -1.3817   -0.8003 C   0  0  0  0  0  0  0  0  0  0  0  0
   -5.4742    0.2798   -0.1454 C   0  0  0  0  0  0  0  0  0  0  0  0
   -5.0273    1.0959    0.6879 O   0  0  0  0  0  0  0  0  0  0  0  0
   -4.5694   -0.0640   -1.3680 C   0  0  1  0  0  0  0  0  0  0  0  0
   -4.9063    0.6727   -2.6886 C   0  0  0  0  0  0  0  0  0  0  0  0
   -6.0117    0.0145   -3.5102 C   0  0  0  0  0  0  0  0  0  0  0  0
   -5.2259    2.1571   -2.4941 C   0  0  0  0  0  0  0  0  0  0  0  0
   -3.2201    0.3690   -0.9366 N   0  0  0  0  0  0  0  0  0  0  0  0
   -2.1406   -0.4766   -0.8063 C   0  0  0  0  0  0  0  0  0  0  0  0
   -2.1515   -1.6194   -1.2521 O   0  0  0  0  0  0  0  0  0  0  0  0
   -0.9428    0.1448   -0.0211 C   0  0  1  0  0  0  0  0  0  0  0  0
   -1.1541    0.2436    1.5218 C   0  0  0  0  0  0  0  0  0  0  0  0
   -2.1077   -0.8101    2.0875 C   0  0  0  0  0  0  0  0  0  0  0  0
   -1.6077    1.6470    1.9424 C   0  0  0  0  0  0  0  0  0  0  0  0
    0.3337   -0.5205   -0.3740 N   0  0  0  0  0  0  0  0  0  0  0  0
    0.6443   -1.8230    0.2013 C   0  0  0  0  0  0  0  0  0  0  0  0
    1.1201    0.0564   -1.3624 C   0  0  0  0  0  0  0  0  0  0  0  0
    0.7857    1.0543   -1.9956 O   0  0  0  0  0  0  0  0  0  0  0  0
    2.3042   -0.5859   -1.5365 O   0  0  0  0  0  0  0  0  0  0  0  0
    3.1694   -0.0552   -2.5443 C   0  0  0  0  0  0  0  0  0  0  0  0
    4.5548    0.1189   -1.9713 C   0  0  0  0  0  0  0  0  0  0  0  0
    4.9947    1.3815   -1.5570 C   0  0  0  0  0  0  0  0  0  0  0  0
    6.2975    1.5655   -1.0742 C   0  0  0  0  0  0  0  0  0  0  0  0
    7.1758    0.4857   -0.9856 C   0  0  0  0  0  0  0  0  0  0  0  0
    6.7213   -0.7861   -1.3559 C   0  0  0  0  0  0  0  0  0  0  0  0
    5.4238   -0.9684   -1.8415 C   0  0  0  0  0  0  0  0  0  0  0  0
    8.5059    0.5887   -0.5492 N   0  0  0  0  0  0  0  0  0  0  0  0
    9.2530    1.7328   -0.3342 C   0  0  0  0  0  0  0  0  0  0  0  0
    8.8476    2.8878   -0.4201 O   0  0  0  0  0  0  0  0  0  0  0  0
   10.6783    1.4282    0.2014 C   0  0  1  0  0  0  0  0  0  0  0  0
   10.6712    1.5114    1.7399 C   0  0  0  0  0  0  0  0  0  0  0  0
   10.4196    2.9043    2.3321 C   0  0  0  0  0  0  0  0  0  0  0  0
   11.4242    3.9792    1.9223 C   0  0  0  0  0  0  0  0  0  0  0  0
   12.7680    3.6558    2.3621 N   0  0  0  0  0  0  0  0  0  0  0  0
   13.6871    4.6526    2.5164 C   0  0  0  0  0  0  0  0  0  0  0  0
   13.4944    5.8500    2.3698 O   0  0  0  0  0  0  0  0  0  0  0  0
   14.9011    4.1577    2.8814 N   0  0  0  0  0  0  0  0  0  0  0  0
   11.1432    0.0858   -0.1923 N   0  0  0  0  0  0  0  0  0  0  0  0
   11.5412   -0.1401   -1.5024 C   0  0  0  0  0  0  0  0  0  0  0  0
   11.2145    0.6015   -2.4207 O   0  0  0  0  0  0  0  0  0  0  0  0
   12.2042   -1.5293   -1.7188 C   0  0  1  0  0  0  0  0  0  0  0  0
   12.9017   -1.6635   -3.0985 C   0  0  0  0  0  0  0  0  0  0  0  0
   13.0785   -3.1358   -3.4800 C   0  0  0  0  0  0  0  0  0  0  0  0
   14.2378   -0.9354   -3.2020 C   0  0  0  0  0  0  0  0  0  0  0  0
   12.9756   -2.0574   -0.5789 N   0  0  0  0  0  0  0  0  0  0  0  0
   14.0369   -1.3674   -0.0256 C   0  0  0  0  0  0  0  0  0  0  0  0
   14.1607   -0.1535   -0.1447 O   0  0  0  0  0  0  0  0  0  0  0  0
   14.9315   -2.2258    0.8478 C   0  0  0  0  0  0  0  0  0  0  0  0
   16.3710   -1.7141    0.9679 C   0  0  0  0  0  0  0  0  0  0  0  0
   16.5093   -0.4397    1.8001 C   0  0  0  0  0  0  0  0  0  0  0  0
   17.9298   -0.1642    2.3032 C   0  0  0  0  0  0  0  0  0  0  0  0
   18.9746    0.0922    1.2136 C   0  0  0  0  0  0  0  0  0  0  0  0
   19.5247   -1.1130    0.6174 N   0  0  0  0  0  0  0  0  0  0  0  0
   19.5553   -1.3624   -0.7171 C   0  0  0  0  0  0  0  0  0  0  0  0
   19.0861   -0.7154   -1.6365 O   0  0  0  0  0  0  0  0  0  0  0  0
   20.3194   -2.6026   -0.9092 C   0  0  0  0  0  0  0  0  0  0  0  0
   20.7529   -3.0026    0.2844 C   0  0  0  0  0  0  0  0  0  0  0  0
   20.2893   -2.0245    1.2779 C   0  0  0  0  0  0  0  0  0  0  0  0
   20.5759   -2.0697    2.4589 O   0  0  0  0  0  0  0  0  0  0  0  0
  -10.5792   -1.1274    3.8572 H   0  0  0  0  0  0  0  0  0  0  0  0
   -9.7857   -2.1421    2.6446 H   0  0  0  0  0  0  0  0  0  0  0  0
  -10.3108   -0.5054    2.2268 H   0  0  0  0  0  0  0  0  0  0  0  0
   -8.6264    0.4589    3.7981 H   0  0  0  0  0  0  0  0  0  0  0  0
   -8.2338   -1.1498    4.3668 H   0  0  0  0  0  0  0  0  0  0  0  0
   -7.4687   -1.7753    2.0758 H   0  0  0  0  0  0  0  0  0  0  0  0
   -5.9535   -1.2770    3.9143 H   0  0  0  0  0  0  0  0  0  0  0  0
   -5.2589   -0.9014    2.3519 H   0  0  0  0  0  0  0  0  0  0  0  0
   -5.8198    0.4090    3.4158 H   0  0  0  0  0  0  0  0  0  0  0  0
   -8.6262   -0.1482    0.7514 H   0  0  0  0  0  0  0  0  0  0  0  0
   -7.2122    2.2065    0.4514 H   0  0  0  0  0  0  0  0  0  0  0  0
   -9.7418    1.7976    2.1001 H   0  0  0  0  0  0  0  0  0  0  0  0
   -9.1890    3.3288    1.4315 H   0  0  0  0  0  0  0  0  0  0  0  0
  -11.3508    4.0150    0.8254 H   0  0  0  0  0  0  0  0  0  0  0  0
  -11.9955    2.7045    1.8581 H   0  0  0  0  0  0  0  0  0  0  0  0
  -13.6254    4.3087    0.1809 H   0  0  0  0  0  0  0  0  0  0  0  0
  -14.0655    2.7211    0.8327 H   0  0  0  0  0  0  0  0  0  0  0  0
  -12.8154    3.3586   -1.8635 H   0  0  0  0  0  0  0  0  0  0  0  0
  -14.1922    2.2755   -1.5294 H   0  0  0  0  0  0  0  0  0  0  0  0
  -12.7458    0.7583   -0.2669 H   0  0  0  0  0  0  0  0  0  0  0  0
  -10.7092    0.3771   -2.1221 H   0  0  0  0  0  0  0  0  0  0  0  0
  -13.6467   -0.3498   -2.3597 H   0  0  0  0  0  0  0  0  0  0  0  0
  -12.8233   -2.2869   -3.7021 H   0  0  0  0  0  0  0  0  0  0  0  0
  -12.4617   -0.7592   -4.5137 H   0  0  0  0  0  0  0  0  0  0  0  0
  -11.1848   -1.6383   -3.6546 H   0  0  0  0  0  0  0  0  0  0  0  0
  -14.2194   -2.3241   -1.3786 H   0  0  0  0  0  0  0  0  0  0  0  0
  -12.5520   -3.0360    0.9621 H   0  0  0  0  0  0  0  0  0  0  0  0
  -11.7330   -4.5438   -0.7563 H   0  0  0  0  0  0  0  0  0  0  0  0
  -13.3648   -5.0047   -1.2321 H   0  0  0  0  0  0  0  0  0  0  0  0
  -12.7397   -5.4776    0.3635 H   0  0  0  0  0  0  0  0  0  0  0  0
  -14.5870   -4.3704    1.6411 H   0  0  0  0  0  0  0  0  0  0  0  0
  -17.2365   -3.2337    1.7172 H   0  0  0  0  0  0  0  0  0  0  0  0
  -18.2557   -1.3511    2.9314 H   0  0  0  0  0  0  0  0  0  0  0  0
  -16.8877    0.6144    3.5706 H   0  0  0  0  0  0  0  0  0  0  0  0
  -14.4750    0.6762    2.9966 H   0  0  0  0  0  0  0  0  0  0  0  0
  -13.4313   -1.1794    1.7932 H   0  0  0  0  0  0  0  0  0  0  0  0
  -15.4632   -4.9375   -0.2477 H   0  0  0  0  0  0  0  0  0  0  0  0
  -10.6148    3.0064   -2.9144 H   0  0  0  0  0  0  0  0  0  0  0  0
  -11.0336    2.8208   -4.6276 H   0  0  0  0  0  0  0  0  0  0  0  0
   -9.9312    1.6510   -3.8749 H   0  0  0  0  0  0  0  0  0  0  0  0
   -7.1780    4.2091    2.1639 H   0  0  0  0  0  0  0  0  0  0  0  0
   -5.6699    3.3617    1.6965 H   0  0  0  0  0  0  0  0  0  0  0  0
   -6.0377    3.6454    3.4067 H   0  0  0  0  0  0  0  0  0  0  0  0
   -8.1340   -1.0509   -1.3341 H   0  0  0  0  0  0  0  0  0  0  0  0
   -7.5036   -2.2131   -0.1430 H   0  0  0  0  0  0  0  0  0  0  0  0
   -6.5103   -1.7529   -1.5162 H   0  0  0  0  0  0  0  0  0  0  0  0
   -4.5331   -1.1480   -1.5087 H   0  0  0  0  0  0  0  0  0  0  0  0
   -4.0035    0.6234   -3.3164 H   0  0  0  0  0  0  0  0  0  0  0  0
   -6.0465    0.4495   -4.5162 H   0  0  0  0  0  0  0  0  0  0  0  0
   -5.8310   -1.0608   -3.6341 H   0  0  0  0  0  0  0  0  0  0  0  0
   -7.0001    0.1583   -3.0641 H   0  0  0  0  0  0  0  0  0  0  0  0
   -4.4373    2.6664   -1.9334 H   0  0  0  0  0  0  0  0  0  0  0  0
   -5.3090    2.6590   -3.4629 H   0  0  0  0  0  0  0  0  0  0  0  0
   -6.1720    2.3020   -1.9644 H   0  0  0  0  0  0  0  0  0  0  0  0
   -3.2352    1.2158   -0.3730 H   0  0  0  0  0  0  0  0  0  0  0  0
   -0.8644    1.1747   -0.3990 H   0  0  0  0  0  0  0  0  0  0  0  0
   -0.1844    0.1006    2.0145 H   0  0  0  0  0  0  0  0  0  0  0  0
   -1.8075   -1.8229    1.8054 H   0  0  0  0  0  0  0  0  0  0  0  0
   -3.1276   -0.6519    1.7315 H   0  0  0  0  0  0  0  0  0  0  0  0
   -2.1288   -0.7578    3.1824 H   0  0  0  0  0  0  0  0  0  0  0  0
   -1.7220    1.7090    3.0313 H   0  0  0  0  0  0  0  0  0  0  0  0
   -2.5597    1.9297    1.4916 H   0  0  0  0  0  0  0  0  0  0  0  0
   -0.8659    2.3955    1.6466 H   0  0  0  0  0  0  0  0  0  0  0  0
    1.4682   -2.3210   -0.3162 H   0  0  0  0  0  0  0  0  0  0  0  0
    0.9236   -1.6968    1.2501 H   0  0  0  0  0  0  0  0  0  0  0  0
   -0.2284   -2.4757    0.1374 H   0  0  0  0  0  0  0  0  0  0  0  0
    3.2016   -0.7781   -3.3673 H   0  0  0  0  0  0  0  0  0  0  0  0
    2.8244    0.8928   -2.9723 H   0  0  0  0  0  0  0  0  0  0  0  0
    4.3323    2.2431   -1.6211 H   0  0  0  0  0  0  0  0  0  0  0  0
    6.5952    2.5659   -0.7798 H   0  0  0  0  0  0  0  0  0  0  0  0
    7.3759   -1.6494   -1.2867 H   0  0  0  0  0  0  0  0  0  0  0  0
    5.0986   -1.9634   -2.1376 H   0  0  0  0  0  0  0  0  0  0  0  0
    9.0510   -0.2632   -0.5293 H   0  0  0  0  0  0  0  0  0  0  0  0
   11.3741    2.1483   -0.2419 H   0  0  0  0  0  0  0  0  0  0  0  0
   11.6260    1.1364    2.1299 H   0  0  0  0  0  0  0  0  0  0  0  0
    9.9023    0.8321    2.1349 H   0  0  0  0  0  0  0  0  0  0  0  0
   10.4362    2.8131    3.4279 H   0  0  0  0  0  0  0  0  0  0  0  0
    9.4088    3.2419    2.0715 H   0  0  0  0  0  0  0  0  0  0  0  0
   11.1196    4.9284    2.3797 H   0  0  0  0  0  0  0  0  0  0  0  0
   11.4462    4.1337    0.8369 H   0  0  0  0  0  0  0  0  0  0  0  0
   13.1857    2.8282    1.9566 H   0  0  0  0  0  0  0  0  0  0  0  0
   15.5288    4.8963    3.1681 H   0  0  0  0  0  0  0  0  0  0  0  0
   14.8549    3.3984    3.5470 H   0  0  0  0  0  0  0  0  0  0  0  0
   11.7675   -0.3715    0.4591 H   0  0  0  0  0  0  0  0  0  0  0  0
   11.3285   -2.2016   -1.7549 H   0  0  0  0  0  0  0  0  0  0  0  0
   12.2405   -1.2236   -3.8547 H   0  0  0  0  0  0  0  0  0  0  0  0
   13.7320   -3.6629   -2.7787 H   0  0  0  0  0  0  0  0  0  0  0  0
   12.1156   -3.6560   -3.4984 H   0  0  0  0  0  0  0  0  0  0  0  0
   13.5184   -3.2285   -4.4800 H   0  0  0  0  0  0  0  0  0  0  0  0
   14.1556    0.1030   -2.8610 H   0  0  0  0  0  0  0  0  0  0  0  0
   15.0305   -1.4348   -2.6291 H   0  0  0  0  0  0  0  0  0  0  0  0
   14.5698   -0.9101   -4.2488 H   0  0  0  0  0  0  0  0  0  0  0  0
   13.0507   -3.0651   -0.5618 H   0  0  0  0  0  0  0  0  0  0  0  0
   14.4666   -2.3052    1.8364 H   0  0  0  0  0  0  0  0  0  0  0  0
   14.9683   -3.2380    0.4209 H   0  0  0  0  0  0  0  0  0  0  0  0
   16.9682   -2.5049    1.4392 H   0  0  0  0  0  0  0  0  0  0  0  0
   16.7787   -1.5493   -0.0352 H   0  0  0  0  0  0  0  0  0  0  0  0
   15.8491   -0.5024    2.6724 H   0  0  0  0  0  0  0  0  0  0  0  0
   16.1714    0.4262    1.2190 H   0  0  0  0  0  0  0  0  0  0  0  0
   18.2403   -0.9753    2.9711 H   0  0  0  0  0  0  0  0  0  0  0  0
   17.8781    0.7378    2.9273 H   0  0  0  0  0  0  0  0  0  0  0  0
   18.5675    0.7445    0.4320 H   0  0  0  0  0  0  0  0  0  0  0  0
   19.8234    0.6194    1.6698 H   0  0  0  0  0  0  0  0  0  0  0  0
   20.4822   -3.0584   -1.8707 H   0  0  0  0  0  0  0  0  0  0  0  0
   21.3571   -3.8558    0.5363 H   0  0  0  0  0  0  0  0  0  0  0  0
  1  2  1  0
  2  3  1  0
  3  4  1  0
  3  5  1  0
  5  6  1  0
  6  7  1  0
  7  8  1  0
  8  9  2  0
  8 10  1  0
 10 11  1  0
 11 12  1  0
 12 13  1  0
 13 14  1  0
 14 15  1  0
 15 16  1  0
 16 17  1  0
 16 18  1  0
 18 19  2  0
 18 20  1  0
 20 21  1  0
 21 22  1  0
 21 23  1  0
 23 24  1  0
 24 25  2  0
 25 26  1  0
 26 27  2  0
 27 28  1  0
 28 29  2  0
 23 30  1  0
 15 31  1  0
 31 32  1  0
  6 33  1  0
 33 34  1  0
  5 35  1  0
 35 36  1  0
 35 37  1  0
 37 38  2  0
 37 39  1  0
 39 40  1  0
 40 41  1  0
 40 42  1  0
 39 43  1  0
 43 44  1  0
 44 45  2  0
 44 46  1  0
 46 47  1  0
 47 48  1  0
 47 49  1  0
 46 50  1  0
 50 51  1  0
 50 52  1  0
 52 53  2  0
 52 54  1  0
 54 55  1  0
 55 56  1  0
 56 57  1  0
 57 58  2  0
 58 59  1  0
 59 60  2  0
 60 61  1  0
 59 62  1  0
 62 63  1  0
 63 64  2  0
 63 65  1  0
 65 66  1  0
 66 67  1  0
 67 68  1  0
 68 69  1  0
 69 70  1  0
 70 71  2  0
 70 72  1  0
 65 73  1  0
 73 74  1  0
 74 75  2  0
 74 76  1  0
 76 77  1  0
 77 78  1  0
 77 79  1  0
 76 80  1  0
 80 81  1  0
 81 82  2  0
 81 83  1  0
 83 84  1  0
 84 85  1  0
 85 86  1  0
 86 87  1  0
 87 88  1  0
 88 89  1  0
 89 90  2  0
 89 91  1  0
 91 92  2  0
 92 93  1  0
 93 94  2  0
 14 10  1  0
 29 24  1  0
 61 56  2  0
 93 88  1  0
  1 95  1  0
  1 96  1  0
  1 97  1  0
  2 98  1  0
  2 99  1  0
  3100  1  6
  4101  1  0
  4102  1  0
  4103  1  0
  5104  1  6
  6105  1  6
  7106  1  0
  7107  1  0
 11108  1  0
 11109  1  0
 12110  1  0
 12111  1  0
 13112  1  0
 13113  1  0
 14114  1  1
 15115  1  1
 16116  1  6
 17117  1  0
 17118  1  0
 17119  1  0
 20120  1  0
 21121  1  1
 22122  1  0
 22123  1  0
 22124  1  0
 23125  1  1
 25126  1  0
 26127  1  0
 27128  1  0
 28129  1  0
 29130  1  0
 30131  1  0
 32132  1  0
 32133  1  0
 32134  1  0
 34135  1  0
 34136  1  0
 34137  1  0
 36138  1  0
 36139  1  0
 36140  1  0
 39141  1  6
 40142  1  0
 41143  1  0
 41144  1  0
 41145  1  0
 42146  1  0
 42147  1  0
 42148  1  0
 43149  1  0
 46150  1  6
 47151  1  0
 48152  1  0
 48153  1  0
 48154  1  0
 49155  1  0
 49156  1  0
 49157  1  0
 51158  1  0
 51159  1  0
 51160  1  0
 55161  1  0
 55162  1  0
 57163  1  0
 58164  1  0
 60165  1  0
 61166  1  0
 62167  1  0
 65168  1  6
 66169  1  0
 66170  1  0
 67171  1  0
 67172  1  0
 68173  1  0
 68174  1  0
 69175  1  0
 72176  1  0
 72177  1  0
 73178  1  0
 76179  1  6
 77180  1  0
 78181  1  0
 78182  1  0
 78183  1  0
 79184  1  0
 79185  1  0
 79186  1  0
 80187  1  0
 83188  1  0
 83189  1  0
 84190  1  0
 84191  1  0
 85192  1  0
 85193  1  0
 86194  1  0
 86195  1  0
 87196  1  0
 87197  1  0
 91198  1  0
 92199  1  0
M  END
$$$$

     RDKit          3D

199202  0  0  0  0  0  0  0  0999 V2000
   -5.4723   -1.1933   -5.9487 C   0  0  0  0  0  0  0  0  0  0  0  0
   -5.6875   -0.0615   -4.9525 C   0  0  0  0  0  0  0  0  0  0  0  0
   -6.4111   -0.4872   -3.6478 C   0  0  2  0  0  0  0  0  0  0  0  0
   -7.7996   -1.0498   -3.9923 C   0  0  0  0  0  0  0  0  0  0  0  0
   -6.4951    0.7189   -2.6638 C   0  0  1  0  0  0  0  0  0  0  0  0
   -7.4452    0.5436   -1.4181 C   0  0  1  0  0  0  0  0  0  0  0  0
   -7.0818   -0.5761   -0.4459 C   0  0  0  0  0  0  0  0  0  0  0  0
   -8.3111   -1.3563    0.0074 C   0  0  0  0  0  0  0  0  0  0  0  0
   -8.5289   -2.4650   -0.4886 O   0  0  0  0  0  0  0  0  0  0  0  0
   -9.1689   -0.7821    0.9181 N   0  0  0  0  0  0  0  0  0  0  0  0
   -8.8037    0.3092    1.8165 C   0  0  0  0  0  0  0  0  0  0  0  0
   -9.8436    0.2663    2.9301 C   0  0  0  0  0  0  0  0  0  0  0  0
  -11.0546   -0.3429    2.2438 C   0  0  0  0  0  0  0  0  0  0  0  0
  -10.4257   -1.4261    1.3633 C   0  0  1  0  0  0  0  0  0  0  0  0
  -11.3454   -1.9721    0.2335 C   0  0  1  0  0  0  0  0  0  0  0  0
  -12.6898   -2.5773    0.6999 C   0  0  1  0  0  0  0  0  0  0  0  0
  -12.5051   -3.6424    1.7784 C   0  0  0  0  0  0  0  0  0  0  0  0
  -13.7411   -1.5524    1.1240 C   0  0  0  0  0  0  0  0  0  0  0  0
  -14.2710   -1.5284    2.2286 O   0  0  0  0  0  0  0  0  0  0  0  0
  -14.0887   -0.6625    0.1386 N   0  0  0  0  0  0  0  0  0  0  0  0
  -15.1087    0.3790    0.3169 C   0  0  2  0  0  0  0  0  0  0  0  0
  -15.6293    0.7625   -1.0721 C   0  0  0  0  0  0  0  0  0  0  0  0
  -14.5453    1.5889    1.1238 C   0  0  1  0  0  0  0  0  0  0  0  0
  -15.4447    2.8079    1.0996 C   0  0  0  0  0  0  0  0  0  0  0  0
  -15.1451    3.8858    0.2551 C   0  0  0  0  0  0  0  0  0  0  0  0
  -15.9976    4.9883    0.1822 C   0  0  0  0  0  0  0  0  0  0  0  0
  -17.1562    5.0303    0.9576 C   0  0  0  0  0  0  0  0  0  0  0  0
  -17.4621    3.9682    1.8054 C   0  0  0  0  0  0  0  0  0  0  0  0
  -16.6131    2.8638    1.8763 C   0  0  0  0  0  0  0  0  0  0  0  0
  -14.3210    1.2445    2.4981 O   0  0  0  0  0  0  0  0  0  0  0  0
  -11.5699   -0.9493   -0.7648 O   0  0  0  0  0  0  0  0  0  0  0  0
  -11.4917   -1.4699   -2.0941 C   0  0  0  0  0  0  0  0  0  0  0  0
   -7.5082    1.7843   -0.6871 O   0  0  0  0  0  0  0  0  0  0  0  0
   -8.5660    2.6368   -1.1109 C   0  0  0  0  0  0  0  0  0  0  0  0
   -5.1847    1.4308   -2.4063 N   0  0  0  0  0  0  0  0  0  0  0  0
   -5.2205    2.8627   -2.7236 C   0  0  0  0  0  0  0  0  0  0  0  0
   -3.9277    0.9598   -2.0243 C   0  0  0  0  0  0  0  0  0  0  0  0
   -2.9419    1.7173   -2.0823 O   0  0  0  0  0  0  0  0  0  0  0  0
   -3.6820   -0.4772   -1.5021 C   0  0  1  0  0  0  0  0  0  0  0  0
   -3.2367   -1.4698   -2.5999 C   0  0  0  0  0  0  0  0  0  0  0  0
   -3.4328   -2.9104   -2.1177 C   0  0  0  0  0  0  0  0  0  0  0  0
   -1.8015   -1.2883   -3.1066 C   0  0  0  0  0  0  0  0  0  0  0  0
   -2.6541   -0.3858   -0.4472 N   0  0  0  0  0  0  0  0  0  0  0  0
   -2.9625   -0.1048    0.8613 C   0  0  0  0  0  0  0  0  0  0  0  0
   -4.1182   -0.1783    1.2880 O   0  0  0  0  0  0  0  0  0  0  0  0
   -1.7554    0.0977    1.8329 C   0  0  1  0  0  0  0  0  0  0  0  0
   -1.4520   -1.2110    2.6258 C   0  0  0  0  0  0  0  0  0  0  0  0
   -1.5223   -2.4936    1.7879 C   0  0  0  0  0  0  0  0  0  0  0  0
   -2.3955   -1.3547    3.8307 C   0  0  0  0  0  0  0  0  0  0  0  0
   -0.5452    0.7378    1.2547 N   0  0  0  0  0  0  0  0  0  0  0  0
   -0.7296    2.0896    0.7536 C   0  0  0  0  0  0  0  0  0  0  0  0
    0.2948   -0.0536    0.4941 C   0  0  0  0  0  0  0  0  0  0  0  0
    0.1442   -0.2143   -0.7083 O   0  0  0  0  0  0  0  0  0  0  0  0
    1.2314   -0.6568    1.2573 O   0  0  0  0  0  0  0  0  0  0  0  0
    2.0436   -1.6404    0.6013 C   0  0  0  0  0  0  0  0  0  0  0  0
    3.4994   -1.2566    0.6544 C   0  0  0  0  0  0  0  0  0  0  0  0
    3.9152    0.0516    0.3772 C   0  0  0  0  0  0  0  0  0  0  0  0
    5.2729    0.3914    0.4369 C   0  0  0  0  0  0  0  0  0  0  0  0
    6.2372   -0.5774    0.7450 C   0  0  0  0  0  0  0  0  0  0  0  0
    5.8265   -1.8883    0.9794 C   0  0  0  0  0  0  0  0  0  0  0  0
    4.4722   -2.2247    0.9381 C   0  0  0  0  0  0  0  0  0  0  0  0
    7.5709   -0.1409    0.8500 N   0  0  0  0  0  0  0  0  0  0  0  0
    8.6931   -0.9101    1.1329 C   0  0  0  0  0  0  0  0  0  0  0  0
    8.7460   -2.1373    1.1702 O   0  0  0  0  0  0  0  0  0  0  0  0
    9.8900   -0.0392    1.5844 C   0  0  1  0  0  0  0  0  0  0  0  0
    9.7466    0.1410    3.1067 C   0  0  0  0  0  0  0  0  0  0  0  0
   10.8283    0.9744    3.7926 C   0  0  0  0  0  0  0  0  0  0  0  0
   12.1590    0.2723    4.0612 C   0  0  0  0  0  0  0  0  0  0  0  0
   12.0025   -0.9770    4.7883 N   0  0  0  0  0  0  0  0  0  0  0  0
   12.1307   -2.1945    4.1883 C   0  0  0  0  0  0  0  0  0  0  0  0
   12.3725   -2.3632    2.9994 O   0  0  0  0  0  0  0  0  0  0  0  0
   11.9730   -3.2267    5.0501 N   0  0  0  0  0  0  0  0  0  0  0  0
   11.1265   -0.6832    1.1993 N   0  0  0  0  0  0  0  0  0  0  0  0
   11.6087   -0.5710   -0.0847 C   0  0  0  0  0  0  0  0  0  0  0  0
   11.0590    0.1266   -0.9350 O   0  0  0  0  0  0  0  0  0  0  0  0
   12.8559   -1.4292   -0.3878 C   0  0  1  0  0  0  0  0  0  0  0  0
   12.4800   -2.9155   -0.5805 C   0  0  0  0  0  0  0  0  0  0  0  0
   13.7338   -3.7767   -0.7690 C   0  0  0  0  0  0  0  0  0  0  0  0
   11.5162   -3.1562   -1.7470 C   0  0  0  0  0  0  0  0  0  0  0  0
   13.5398   -0.8670   -1.5504 N   0  0  0  0  0  0  0  0  0  0  0  0
   14.3929    0.2081   -1.3847 C   0  0  0  0  0  0  0  0  0  0  0  0
   14.7097    0.6419   -0.2859 O   0  0  0  0  0  0  0  0  0  0  0  0
   14.9227    0.7420   -2.7014 C   0  0  0  0  0  0  0  0  0  0  0  0
   15.6931    2.0605   -2.6021 C   0  0  0  0  0  0  0  0  0  0  0  0
   17.1896    1.9254   -2.2792 C   0  0  0  0  0  0  0  0  0  0  0  0
   17.5561    1.5488   -0.8424 C   0  0  0  0  0  0  0  0  0  0  0  0
   17.0741    2.5373    0.2302 C   0  0  0  0  0  0  0  0  0  0  0  0
   17.8477    3.7672    0.2441 N   0  0  0  0  0  0  0  0  0  0  0  0
   18.9534    3.9687    1.0050 C   0  0  0  0  0  0  0  0  0  0  0  0
   19.5030    3.2113    1.7849 O   0  0  0  0  0  0  0  0  0  0  0  0
   19.4154    5.3346    0.7425 C   0  0  0  0  0  0  0  0  0  0  0  0
   18.5864    5.8801   -0.1478 C   0  0  0  0  0  0  0  0  0  0  0  0
   17.5612    4.8830   -0.4758 C   0  0  0  0  0  0  0  0  0  0  0  0
   16.6513    5.0925   -1.2582 O   0  0  0  0  0  0  0  0  0  0  0  0
   -6.3894   -1.4117   -6.5053 H   0  0  0  0  0  0  0  0  0  0  0  0
   -4.7057   -0.9035   -6.6792 H   0  0  0  0  0  0  0  0  0  0  0  0
   -5.1332   -2.1116   -5.4564 H   0  0  0  0  0  0  0  0  0  0  0  0
   -6.2516    0.7374   -5.4478 H   0  0  0  0  0  0  0  0  0  0  0  0
   -4.7050    0.3607   -4.7175 H   0  0  0  0  0  0  0  0  0  0  0  0
   -5.8668   -1.3025   -3.1710 H   0  0  0  0  0  0  0  0  0  0  0  0
   -8.4386   -0.2833   -4.4405 H   0  0  0  0  0  0  0  0  0  0  0  0
   -8.2989   -1.4460   -3.1058 H   0  0  0  0  0  0  0  0  0  0  0  0
   -7.7270   -1.8843   -4.6973 H   0  0  0  0  0  0  0  0  0  0  0  0
   -7.0438    1.4613   -3.2656 H   0  0  0  0  0  0  0  0  0  0  0  0
   -8.4524    0.3406   -1.8009 H   0  0  0  0  0  0  0  0  0  0  0  0
   -6.5288   -0.2140    0.4230 H   0  0  0  0  0  0  0  0  0  0  0  0
   -6.4759   -1.3360   -0.9434 H   0  0  0  0  0  0  0  0  0  0  0  0
   -8.8754    1.2519    1.2739 H   0  0  0  0  0  0  0  0  0  0  0  0
   -7.7929    0.1703    2.2143 H   0  0  0  0  0  0  0  0  0  0  0  0
  -10.0386    1.2499    3.3645 H   0  0  0  0  0  0  0  0  0  0  0  0
   -9.5038   -0.3999    3.7323 H   0  0  0  0  0  0  0  0  0  0  0  0
  -11.7648   -0.7412    2.9708 H   0  0  0  0  0  0  0  0  0  0  0  0
  -11.5556    0.4184    1.6333 H   0  0  0  0  0  0  0  0  0  0  0  0
  -10.1139   -2.2679    1.9986 H   0  0  0  0  0  0  0  0  0  0  0  0
  -10.8015   -2.8000   -0.2360 H   0  0  0  0  0  0  0  0  0  0  0  0
  -13.1336   -3.0816   -0.1703 H   0  0  0  0  0  0  0  0  0  0  0  0
  -13.4472   -4.1706    1.9647 H   0  0  0  0  0  0  0  0  0  0  0  0
  -11.7611   -4.3857    1.4712 H   0  0  0  0  0  0  0  0  0  0  0  0
  -12.1887   -3.2111    2.7354 H   0  0  0  0  0  0  0  0  0  0  0  0
  -13.3496   -0.4726   -0.5315 H   0  0  0  0  0  0  0  0  0  0  0  0
  -15.9321   -0.0713    0.8861 H   0  0  0  0  0  0  0  0  0  0  0  0
  -16.4775    1.4498   -1.0095 H   0  0  0  0  0  0  0  0  0  0  0  0
  -14.8441    1.2278   -1.6765 H   0  0  0  0  0  0  0  0  0  0  0  0
  -15.9722   -0.1296   -1.6066 H   0  0  0  0  0  0  0  0  0  0  0  0
  -13.5604    1.8599    0.7218 H   0  0  0  0  0  0  0  0  0  0  0  0
  -14.2498    3.8705   -0.3628 H   0  0  0  0  0  0  0  0  0  0  0  0
  -15.7595    5.8167   -0.4779 H   0  0  0  0  0  0  0  0  0  0  0  0
  -17.8198    5.8896    0.9009 H   0  0  0  0  0  0  0  0  0  0  0  0
  -18.3602    4.0017    2.4184 H   0  0  0  0  0  0  0  0  0  0  0  0
  -16.8606    2.0440    2.5469 H   0  0  0  0  0  0  0  0  0  0  0  0
  -14.3666    0.2686    2.5763 H   0  0  0  0  0  0  0  0  0  0  0  0
  -10.5042   -1.8961   -2.2831 H   0  0  0  0  0  0  0  0  0  0  0  0
  -12.2669   -2.2253   -2.2543 H   0  0  0  0  0  0  0  0  0  0  0  0
  -11.6554   -0.6434   -2.7885 H   0  0  0  0  0  0  0  0  0  0  0  0
   -8.4852    2.8797   -2.1743 H   0  0  0  0  0  0  0  0  0  0  0  0
   -8.5092    3.5682   -0.5364 H   0  0  0  0  0  0  0  0  0  0  0  0
   -9.5362    2.1689   -0.9107 H   0  0  0  0  0  0  0  0  0  0  0  0
   -6.1429    3.3106   -2.3453 H   0  0  0  0  0  0  0  0  0  0  0  0
   -5.1817    2.9765   -3.8116 H   0  0  0  0  0  0  0  0  0  0  0  0
   -4.3890    3.4184   -2.2781 H   0  0  0  0  0  0  0  0  0  0  0  0
   -4.5914   -0.8179   -1.0306 H   0  0  0  0  0  0  0  0  0  0  0  0
   -3.8582   -1.3349   -3.4786 H   0  0  0  0  0  0  0  0  0  0  0  0
   -3.2146   -3.6218   -2.9234 H   0  0  0  0  0  0  0  0  0  0  0  0
   -2.7728   -3.1418   -1.2740 H   0  0  0  0  0  0  0  0  0  0  0  0
   -4.4680   -3.0745   -1.8024 H   0  0  0  0  0  0  0  0  0  0  0  0
   -1.6227   -0.2687   -3.4554 H   0  0  0  0  0  0  0  0  0  0  0  0
   -1.0724   -1.5388   -2.3364 H   0  0  0  0  0  0  0  0  0  0  0  0
   -1.6080   -1.9686   -3.9420 H   0  0  0  0  0  0  0  0  0  0  0  0
   -1.7434   -0.0663   -0.7758 H   0  0  0  0  0  0  0  0  0  0  0  0
   -2.1054    0.8484    2.5568 H   0  0  0  0  0  0  0  0  0  0  0  0
   -0.4428   -1.1335    3.0499 H   0  0  0  0  0  0  0  0  0  0  0  0
   -2.5559   -2.7564    1.5459 H   0  0  0  0  0  0  0  0  0  0  0  0
   -0.9698   -2.4124    0.8525 H   0  0  0  0  0  0  0  0  0  0  0  0
   -1.1007   -3.3367    2.3459 H   0  0  0  0  0  0  0  0  0  0  0  0
   -2.3545   -0.4631    4.4665 H   0  0  0  0  0  0  0  0  0  0  0  0
   -2.0975   -2.2145    4.4465 H   0  0  0  0  0  0  0  0  0  0  0  0
   -3.4315   -1.5120    3.5139 H   0  0  0  0  0  0  0  0  0  0  0  0
    0.2305    2.4814    0.4016 H   0  0  0  0  0  0  0  0  0  0  0  0
   -1.1000    2.7266    1.5595 H   0  0  0  0  0  0  0  0  0  0  0  0
   -1.4270    2.0963   -0.0815 H   0  0  0  0  0  0  0  0  0  0  0  0
    1.8907   -2.5724    1.1575 H   0  0  0  0  0  0  0  0  0  0  0  0
    1.7561   -1.8330   -0.4355 H   0  0  0  0  0  0  0  0  0  0  0  0
    3.1844    0.8220    0.1462 H   0  0  0  0  0  0  0  0  0  0  0  0
    5.5539    1.4213    0.2467 H   0  0  0  0  0  0  0  0  0  0  0  0
    6.5354   -2.6743    1.2256 H   0  0  0  0  0  0  0  0  0  0  0  0
    4.1839   -3.2536    1.1364 H   0  0  0  0  0  0  0  0  0  0  0  0
    7.7242    0.8455    0.6885 H   0  0  0  0  0  0  0  0  0  0  0  0
    9.8404    0.9389    1.0914 H   0  0  0  0  0  0  0  0  0  0  0  0
    8.7878    0.6512    3.2880 H   0  0  0  0  0  0  0  0  0  0  0  0
    9.6405   -0.8331    3.6017 H   0  0  0  0  0  0  0  0  0  0  0  0
   11.0128    1.8885    3.2187 H   0  0  0  0  0  0  0  0  0  0  0  0
   10.4264    1.2918    4.7619 H   0  0  0  0  0  0  0  0  0  0  0  0
   12.7791    0.9196    4.6901 H   0  0  0  0  0  0  0  0  0  0  0  0
   12.7131    0.1005    3.1372 H   0  0  0  0  0  0  0  0  0  0  0  0
   11.6285   -0.9586    5.7247 H   0  0  0  0  0  0  0  0  0  0  0  0
   12.4336   -3.1258    5.9409 H   0  0  0  0  0  0  0  0  0  0  0  0
   12.1348   -4.1307    4.6207 H   0  0  0  0  0  0  0  0  0  0  0  0
   11.4584   -1.4675    1.7634 H   0  0  0  0  0  0  0  0  0  0  0  0
   13.5272   -1.3421    0.4782 H   0  0  0  0  0  0  0  0  0  0  0  0
   11.9793   -3.2671    0.3300 H   0  0  0  0  0  0  0  0  0  0  0  0
   14.4183   -3.6625    0.0796 H   0  0  0  0  0  0  0  0  0  0  0  0
   14.2730   -3.5066   -1.6829 H   0  0  0  0  0  0  0  0  0  0  0  0
   13.4663   -4.8374   -0.8440 H   0  0  0  0  0  0  0  0  0  0  0  0
   11.9780   -2.9116   -2.7088 H   0  0  0  0  0  0  0  0  0  0  0  0
   10.6031   -2.5611   -1.6429 H   0  0  0  0  0  0  0  0  0  0  0  0
   11.2181   -4.2100   -1.7819 H   0  0  0  0  0  0  0  0  0  0  0  0
   13.0019   -0.8664   -2.4093 H   0  0  0  0  0  0  0  0  0  0  0  0
   15.5425   -0.0302   -3.1684 H   0  0  0  0  0  0  0  0  0  0  0  0
   14.0558    0.9067   -3.3518 H   0  0  0  0  0  0  0  0  0  0  0  0
   15.1954    2.7496   -1.9140 H   0  0  0  0  0  0  0  0  0  0  0  0
   15.6347    2.5338   -3.5909 H   0  0  0  0  0  0  0  0  0  0  0  0
   17.6782    2.8738   -2.5292 H   0  0  0  0  0  0  0  0  0  0  0  0
   17.6309    1.1803   -2.9544 H   0  0  0  0  0  0  0  0  0  0  0  0
   17.1650    0.5503   -0.6174 H   0  0  0  0  0  0  0  0  0  0  0  0
   18.6499    1.4627   -0.7781 H   0  0  0  0  0  0  0  0  0  0  0  0
   16.0190    2.7981    0.0994 H   0  0  0  0  0  0  0  0  0  0  0  0
   17.1795    2.0636    1.2143 H   0  0  0  0  0  0  0  0  0  0  0  0
   20.2775    5.7709    1.2165 H   0  0  0  0  0  0  0  0  0  0  0  0
   18.6107    6.8670   -0.5725 H   0  0  0  0  0  0  0  0  0  0  0  0
  1  2  1  0
  2  3  1  0
  3  4  1  0
  3  5  1  0
  5  6  1  0
  6  7  1  0
  7  8  1  0
  8  9  2  0
  8 10  1  0
 10 11  1  0
 11 12  1  0
 12 13  1  0
 13 14  1  0
 14 15  1  0
 15 16  1  0
 16 17  1  0
 16 18  1  0
 18 19  2  0
 18 20  1  0
 20 21  1  0
 21 22  1  0
 21 23  1  0
 23 24  1  0
 24 25  2  0
 25 26  1  0
 26 27  2  0
 27 28  1  0
 28 29  2  0
 23 30  1  0
 15 31  1  0
 31 32  1  0
  6 33  1  0
 33 34  1  0
  5 35  1  0
 35 36  1  0
 35 37  1  0
 37 38  2  0
 37 39  1  0
 39 40  1  0
 40 41  1  0
 40 42  1  0
 39 43  1  0
 43 44  1  0
 44 45  2  0
 44 46  1  0
 46 47  1  0
 47 48  1  0
 47 49  1  0
 46 50  1  0
 50 51  1  0
 50 52  1  0
 52 53  2  0
 52 54  1  0
 54 55  1  0
 55 56  1  0
 56 57  1  0
 57 58  2  0
 58 59  1  0
 59 60  2  0
 60 61  1  0
 59 62  1  0
 62 63  1  0
 63 64  2  0
 63 65  1  0
 65 66  1  0
 66 67  1  0
 67 68  1  0
 68 69  1  0
 69 70  1  0
 70 71  2  0
 70 72  1  0
 65 73  1  0
 73 74  1  0
 74 75  2  0
 74 76  1  0
 76 77  1  0
 77 78  1  0
 77 79  1  0
 76 80  1  0
 80 81  1  0
 81 82  2  0
 81 83  1  0
 83 84  1  0
 84 85  1  0
 85 86  1  0
 86 87  1  0
 87 88  1  0
 88 89  1  0
 89 90  2  0
 89 91  1  0
 91 92  2  0
 92 93  1  0
 93 94  2  0
 14 10  1  0
 29 24  1  0
 61 56  2  0
 93 88  1  0
  1 95  1  0
  1 96  1  0
  1 97  1  0
  2 98  1  0
  2 99  1  0
  3100  1  1
  4101  1  0
  4102  1  0
  4103  1  0
  5104  1  6
  6105  1  6
  7106  1  0
  7107  1  0
 11108  1  0
 11109  1  0
 12110  1  0
 12111  1  0
 13112  1  0
 13113  1  0
 14114  1  1
 15115  1  6
 16116  1  6
 17117  1  0
 17118  1  0
 17119  1  0
 20120  1  0
 21121  1  1
 22122  1  0
 22123  1  0
 22124  1  0
 23125  1  6
 25126  1  0
 26127  1  0
 27128  1  0
 28129  1  0
 29130  1  0
 30131  1  0
 32132  1  0
 32133  1  0
 32134  1  0
 34135  1  0
 34136  1  0
 34137  1  0
 36138  1  0
 36139  1  0
 36140  1  0
 39141  1  1
 40142  1  0
 41143  1  0
 41144  1  0
 41145  1  0
 42146  1  0
 42147  1  0
 42148  1  0
 43149  1  0
 46150  1  1
 47151  1  0
 48152  1  0
 48153  1  0
 48154  1  0
 49155  1  0
 49156  1  0
 49157  1  0
 51158  1  0
 51159  1  0
 51160  1  0
 55161  1  0
 55162  1  0
 57163  1  0
 58164  1  0
 60165  1  0
 61166  1  0
 62167  1  0
 65168  1  6
 66169  1  0
 66170  1  0
 67171  1  0
 67172  1  0
 68173  1  0
 68174  1  0
 69175  1  0
 72176  1  0
 72177  1  0
 73178  1  0
 76179  1  1
 77180  1  0
 78181  1  0
 78182  1  0
 78183  1  0
 79184  1  0
 79185  1  0
 79186  1  0
 80187  1  0
 83188  1  0
 83189  1  0
 84190  1  0
 84191  1  0
 85192  1  0
 85193  1  0
 86194  1  0
 86195  1  0
 87196  1  0
 87197  1  0
 91198  1  0
 92199  1  0
M  END
$$$$

     RDKit          3D

199202  0  0  0  0  0  0  0  0999 V2000
   -7.8182   -4.6222    1.1296 C   0  0  0  0  0  0  0  0  0  0  0  0
   -7.0054   -3.8559    2.1638 C   0  0  0  0  0  0  0  0  0  0  0  0
   -7.4249   -2.3743    2.3728 C   0  0  2  0  0  0  0  0  0  0  0  0
   -8.8705   -2.3098    2.8448 C   0  0  0  0  0  0  0  0  0  0  0  0
   -7.0287   -1.4810    1.1371 C   0  0  1  0  0  0  0  0  0  0  0  0
   -8.1427   -0.9739    0.1409 C   0  0  1  0  0  0  0  0  0  0  0  0
   -8.8200    0.3817    0.3773 C   0  0  0  0  0  0  0  0  0  0  0  0
   -9.7853    0.4877    1.5324 C   0  0  0  0  0  0  0  0  0  0  0  0
   -9.4100    1.0005    2.5900 O   0  0  0  0  0  0  0  0  0  0  0  0
  -11.0619   -0.0132    1.4013 N   0  0  0  0  0  0  0  0  0  0  0  0
  -11.8709   -0.2361    2.5893 C   0  0  0  0  0  0  0  0  0  0  0  0
  -12.7210   -1.4326    2.2109 C   0  0  0  0  0  0  0  0  0  0  0  0
  -13.0457   -1.1518    0.7514 C   0  0  0  0  0  0  0  0  0  0  0  0
  -11.7730   -0.4804    0.1896 C   0  0  1  0  0  0  0  0  0  0  0  0
  -12.0838    0.6588   -0.8406 C   0  0  1  0  0  0  0  0  0  0  0  0
  -12.3931    0.1516   -2.2715 C   0  0  1  0  0  0  0  0  0  0  0  0
  -11.1830   -0.5255   -2.9181 C   0  0  0  0  0  0  0  0  0  0  0  0
  -13.6195   -0.7556   -2.3345 C   0  0  0  0  0  0  0  0  0  0  0  0
  -13.5765   -1.9170   -2.7229 O   0  0  0  0  0  0  0  0  0  0  0  0
  -14.7814   -0.1427   -1.9227 N   0  0  0  0  0  0  0  0  0  0  0  0
  -16.0692   -0.8295   -1.8779 C   0  0  2  0  0  0  0  0  0  0  0  0
  -16.7628   -0.8442   -3.2428 C   0  0  0  0  0  0  0  0  0  0  0  0
  -16.9762   -0.3374   -0.7081 C   0  0  1  0  0  0  0  0  0  0  0  0
  -17.3241    1.1375   -0.5725 C   0  0  0  0  0  0  0  0  0  0  0  0
  -17.9904    1.5508    0.5987 C   0  0  0  0  0  0  0  0  0  0  0  0
  -18.3263    2.8894    0.8134 C   0  0  0  0  0  0  0  0  0  0  0  0
  -18.0038    3.8470   -0.1420 C   0  0  0  0  0  0  0  0  0  0  0  0
  -17.3513    3.4628   -1.3096 C   0  0  0  0  0  0  0  0  0  0  0  0
  -17.0139    2.1211   -1.5220 C   0  0  0  0  0  0  0  0  0  0  0  0
  -18.2058   -1.0749   -0.6969 O   0  0  0  0  0  0  0  0  0  0  0  0
  -13.1901    1.4871   -0.4201 O   0  0  0  0  0  0  0  0  0  0  0  0
  -12.7877    2.6721    0.2582 C   0  0  0  0  0  0  0  0  0  0  0  0
   -7.5814   -0.7888   -1.1924 O   0  0  0  0  0  0  0  0  0  0  0  0
   -7.3364   -1.9805   -1.9253 C   0  0  0  0  0  0  0  0  0  0  0  0
   -5.9674   -0.4988    1.5122 N   0  0  0  0  0  0  0  0  0  0  0  0
   -6.3104    0.5771    2.4416 C   0  0  0  0  0  0  0  0  0  0  0  0
   -4.7001   -0.6162    0.9224 C   0  0  0  0  0  0  0  0  0  0  0  0
   -4.4469   -1.4680    0.0597 O   0  0  0  0  0  0  0  0  0  0  0  0
   -3.5532    0.2936    1.4359 C   0  0  1  0  0  0  0  0  0  0  0  0
   -3.0078   -0.2283    2.7934 C   0  0  0  0  0  0  0  0  0  0  0  0
   -2.1428    0.8228    3.4955 C   0  0  0  0  0  0  0  0  0  0  0  0
   -2.2298   -1.5435    2.6726 C   0  0  0  0  0  0  0  0  0  0  0  0
   -2.5082    0.3206    0.4128 N   0  0  0  0  0  0  0  0  0  0  0  0
   -1.7057    1.4126    0.1807 C   0  0  0  0  0  0  0  0  0  0  0  0
   -1.9047    2.4963    0.7220 O   0  0  0  0  0  0  0  0  0  0  0  0
   -0.5449    1.1588   -0.8175 C   0  0  1  0  0  0  0  0  0  0  0  0
   -0.9206    1.6019   -2.2560 C   0  0  0  0  0  0  0  0  0  0  0  0
    0.2769    1.4905   -3.2083 C   0  0  0  0  0  0  0  0  0  0  0  0
   -2.0669    0.7564   -2.8231 C   0  0  0  0  0  0  0  0  0  0  0  0
    0.6809    1.7887   -0.2776 N   0  0  0  0  0  0  0  0  0  0  0  0
    0.8004    3.2424   -0.2669 C   0  0  0  0  0  0  0  0  0  0  0  0
    1.3999    1.0475    0.6586 C   0  0  0  0  0  0  0  0  0  0  0  0
    1.1775   -0.1313    0.9080 O   0  0  0  0  0  0  0  0  0  0  0  0
    2.3610    1.7854    1.2702 O   0  0  0  0  0  0  0  0  0  0  0  0
    3.1106    1.1292    2.3005 C   0  0  0  0  0  0  0  0  0  0  0  0
    4.4650    0.6562    1.8254 C   0  0  0  0  0  0  0  0  0  0  0  0
    5.2017   -0.2202    2.6348 C   0  0  0  0  0  0  0  0  0  0  0  0
    6.4793   -0.6386    2.2508 C   0  0  0  0  0  0  0  0  0  0  0  0
    7.0486   -0.1916    1.0534 C   0  0  0  0  0  0  0  0  0  0  0  0
    6.3156    0.6713    0.2398 C   0  0  0  0  0  0  0  0  0  0  0  0
    5.0374    1.0941    0.6252 C   0  0  0  0  0  0  0  0  0  0  0  0
    8.3585   -0.6266    0.7676 N   0  0  0  0  0  0  0  0  0  0  0  0
    9.1229   -0.3344   -0.3503 C   0  0  0  0  0  0  0  0  0  0  0  0
    8.7387    0.2394   -1.3684 O   0  0  0  0  0  0  0  0  0  0  0  0
   10.5698   -0.8808   -0.2389 C   0  0  1  0  0  0  0  0  0  0  0  0
   10.5743   -2.3634   -0.6343 C   0  0  0  0  0  0  0  0  0  0  0  0
   11.9434   -3.0482   -0.5443 C   0  0  0  0  0  0  0  0  0  0  0  0
   12.8099   -2.8385   -1.7888 C   0  0  0  0  0  0  0  0  0  0  0  0
   14.0324   -3.6165   -1.7446 N   0  0  0  0  0  0  0  0  0  0  0  0
   14.0153   -4.9500   -2.0350 C   0  0  0  0  0  0  0  0  0  0  0  0
   13.0446   -5.5968   -2.3977 O   0  0  0  0  0  0  0  0  0  0  0  0
   15.2364   -5.5196   -1.8776 N   0  0  0  0  0  0  0  0  0  0  0  0
   11.4250   -0.0704   -1.0877 N   0  0  0  0  0  0  0  0  0  0  0  0
   11.8152    1.1832   -0.6244 C   0  0  0  0  0  0  0  0  0  0  0  0
   11.4868    1.6078    0.4815 O   0  0  0  0  0  0  0  0  0  0  0  0
   12.5713    2.0306   -1.6863 C   0  0  1  0  0  0  0  0  0  0  0  0
   12.9571    3.4471   -1.1866 C   0  0  0  0  0  0  0  0  0  0  0  0
   14.1031    3.4895   -0.1764 C   0  0  0  0  0  0  0  0  0  0  0  0
   13.2774    4.3704   -2.3661 C   0  0  0  0  0  0  0  0  0  0  0  0
   13.6535    1.2891   -2.3501 N   0  0  0  0  0  0  0  0  0  0  0  0
   14.6387    0.6565   -1.6211 C   0  0  0  0  0  0  0  0  0  0  0  0
   14.5413    0.4530   -0.4168 O   0  0  0  0  0  0  0  0  0  0  0  0
   15.8244    0.1660   -2.4291 C   0  0  0  0  0  0  0  0  0  0  0  0
   17.1681    0.5684   -1.8120 C   0  0  0  0  0  0  0  0  0  0  0  0
   17.8215   -0.4818   -0.8964 C   0  0  0  0  0  0  0  0  0  0  0  0
   17.1169   -0.7904    0.4300 C   0  0  0  0  0  0  0  0  0  0  0  0
   16.9271    0.4040    1.3728 C   0  0  0  0  0  0  0  0  0  0  0  0
   18.1578    0.7867    2.0425 N   0  0  0  0  0  0  0  0  0  0  0  0
   18.5619    0.2956    3.2399 C   0  0  0  0  0  0  0  0  0  0  0  0
   18.0239   -0.5276    3.9589 O   0  0  0  0  0  0  0  0  0  0  0  0
   19.8190    0.9711    3.5794 C   0  0  0  0  0  0  0  0  0  0  0  0
   20.0925    1.8373    2.6022 C   0  0  0  0  0  0  0  0  0  0  0  0
   19.0221    1.7310    1.6030 C   0  0  0  0  0  0  0  0  0  0  0  0
   18.9877    2.3972    0.5841 O   0  0  0  0  0  0  0  0  0  0  0  0
   -7.8329   -4.1139    0.1632 H   0  0  0  0  0  0  0  0  0  0  0  0
   -8.8489   -4.7702    1.4595 H   0  0  0  0  0  0  0  0  0  0  0  0
   -7.3762   -5.6114    0.9763 H   0  0  0  0  0  0  0  0  0  0  0  0
   -5.9444   -3.8950    1.8869 H   0  0  0  0  0  0  0  0  0  0  0  0
   -7.0823   -4.3873    3.1229 H   0  0  0  0  0  0  0  0  0  0  0  0
   -6.8133   -2.0499    3.2279 H   0  0  0  0  0  0  0  0  0  0  0  0
   -9.0578   -3.0545    3.6273 H   0  0  0  0  0  0  0  0  0  0  0  0
   -9.0797   -1.3431    3.2967 H   0  0  0  0  0  0  0  0  0  0  0  0
   -9.5824   -2.5030    2.0400 H   0  0  0  0  0  0  0  0  0  0  0  0
   -6.4860   -2.1964    0.5185 H   0  0  0  0  0  0  0  0  0  0  0  0
   -8.9134   -1.7452    0.0542 H   0  0  0  0  0  0  0  0  0  0  0  0
   -8.0824    1.1839    0.4573 H   0  0  0  0  0  0  0  0  0  0  0  0
   -9.3512    0.6589   -0.5359 H   0  0  0  0  0  0  0  0  0  0  0  0
  -11.2643   -0.4250    3.4779 H   0  0  0  0  0  0  0  0  0  0  0  0
  -12.4806    0.6555    2.7609 H   0  0  0  0  0  0  0  0  0  0  0  0
  -13.6132   -1.5340    2.8349 H   0  0  0  0  0  0  0  0  0  0  0  0
  -12.1376   -2.3582    2.2878 H   0  0  0  0  0  0  0  0  0  0  0  0
  -13.3078   -2.0649    0.2096 H   0  0  0  0  0  0  0  0  0  0  0  0
  -13.9156   -0.4882    0.7219 H   0  0  0  0  0  0  0  0  0  0  0  0
  -11.1237   -1.2355   -0.2604 H   0  0  0  0  0  0  0  0  0  0  0  0
  -11.2127    1.3136   -0.9385 H   0  0  0  0  0  0  0  0  0  0  0  0
  -12.6449    1.0256   -2.8883 H   0  0  0  0  0  0  0  0  0  0  0  0
  -11.3845   -0.7381   -3.9742 H   0  0  0  0  0  0  0  0  0  0  0  0
  -10.9356   -1.4805   -2.4409 H   0  0  0  0  0  0  0  0  0  0  0  0
  -10.3003    0.1216   -2.8720 H   0  0  0  0  0  0  0  0  0  0  0  0
  -14.6793    0.7508   -1.4409 H   0  0  0  0  0  0  0  0  0  0  0  0
  -15.8451   -1.8843   -1.6617 H   0  0  0  0  0  0  0  0  0  0  0  0
  -17.2628    0.0976   -3.4718 H   0  0  0  0  0  0  0  0  0  0  0  0
  -17.5229   -1.6307   -3.2754 H   0  0  0  0  0  0  0  0  0  0  0  0
  -16.0478   -1.0405   -4.0462 H   0  0  0  0  0  0  0  0  0  0  0  0
  -16.4468   -0.5992    0.2204 H   0  0  0  0  0  0  0  0  0  0  0  0
  -18.2611    0.8142    1.3534 H   0  0  0  0  0  0  0  0  0  0  0  0
  -18.8437    3.1797    1.7234 H   0  0  0  0  0  0  0  0  0  0  0  0
  -18.2679    4.8887    0.0177 H   0  0  0  0  0  0  0  0  0  0  0  0
  -17.1051    4.2076   -2.0636 H   0  0  0  0  0  0  0  0  0  0  0  0
  -16.5050    1.8775   -2.4499 H   0  0  0  0  0  0  0  0  0  0  0  0
  -17.9788   -2.0183   -0.6453 H   0  0  0  0  0  0  0  0  0  0  0  0
  -12.2341    3.3242   -0.4254 H   0  0  0  0  0  0  0  0  0  0  0  0
  -12.1775    2.4449    1.1345 H   0  0  0  0  0  0  0  0  0  0  0  0
  -13.6883    3.1979    0.5865 H   0  0  0  0  0  0  0  0  0  0  0  0
   -6.4733   -2.5205   -1.5313 H   0  0  0  0  0  0  0  0  0  0  0  0
   -8.2186   -2.6247   -1.9309 H   0  0  0  0  0  0  0  0  0  0  0  0
   -7.1044   -1.6975   -2.9570 H   0  0  0  0  0  0  0  0  0  0  0  0
   -5.4665    0.8615    3.0676 H   0  0  0  0  0  0  0  0  0  0  0  0
   -7.1129    0.2631    3.1065 H   0  0  0  0  0  0  0  0  0  0  0  0
   -6.5977    1.4620    1.8740 H   0  0  0  0  0  0  0  0  0  0  0  0
   -3.9415    1.3119    1.5350 H   0  0  0  0  0  0  0  0  0  0  0  0
   -3.8515   -0.4389    3.4608 H   0  0  0  0  0  0  0  0  0  0  0  0
   -1.9086    0.5053    4.5195 H   0  0  0  0  0  0  0  0  0  0  0  0
   -1.1914    0.9818    2.9764 H   0  0  0  0  0  0  0  0  0  0  0  0
   -2.6661    1.7829    3.5606 H   0  0  0  0  0  0  0  0  0  0  0  0
   -1.9378   -1.9067    3.6648 H   0  0  0  0  0  0  0  0  0  0  0  0
   -2.8394   -2.3240    2.2080 H   0  0  0  0  0  0  0  0  0  0  0  0
   -1.3133   -1.4270    2.0835 H   0  0  0  0  0  0  0  0  0  0  0  0
   -2.3544   -0.5509   -0.0856 H   0  0  0  0  0  0  0  0  0  0  0  0
   -0.3645    0.0764   -0.8491 H   0  0  0  0  0  0  0  0  0  0  0  0
   -1.2619    2.6422   -2.2485 H   0  0  0  0  0  0  0  0  0  0  0  0
    1.0909    2.1644   -2.9209 H   0  0  0  0  0  0  0  0  0  0  0  0
    0.6746    0.4706   -3.2314 H   0  0  0  0  0  0  0  0  0  0  0  0
   -0.0128    1.7593   -4.2311 H   0  0  0  0  0  0  0  0  0  0  0  0
   -2.3050    1.0617   -3.8475 H   0  0  0  0  0  0  0  0  0  0  0  0
   -2.9819    0.8725   -2.2359 H   0  0  0  0  0  0  0  0  0  0  0  0
   -1.8071   -0.3071   -2.8436 H   0  0  0  0  0  0  0  0  0  0  0  0
    0.4108    3.6341    0.6774 H   0  0  0  0  0  0  0  0  0  0  0  0
    0.2688    3.6967   -1.1041 H   0  0  0  0  0  0  0  0  0  0  0  0
    1.8553    3.5214   -0.3492 H   0  0  0  0  0  0  0  0  0  0  0  0
    2.5496    0.3015    2.7508 H   0  0  0  0  0  0  0  0  0  0  0  0
    3.2714    1.8742    3.0883 H   0  0  0  0  0  0  0  0  0  0  0  0
    4.7862   -0.5812    3.5734 H   0  0  0  0  0  0  0  0  0  0  0  0
    7.0191   -1.3194    2.9053 H   0  0  0  0  0  0  0  0  0  0  0  0
    6.7093    1.0450   -0.6991 H   0  0  0  0  0  0  0  0  0  0  0  0
    4.5031    1.7837   -0.0248 H   0  0  0  0  0  0  0  0  0  0  0  0
    8.8072   -1.1631    1.5007 H   0  0  0  0  0  0  0  0  0  0  0  0
   10.9085   -0.7735    0.7998 H   0  0  0  0  0  0  0  0  0  0  0  0
    9.8935   -2.8978    0.0433 H   0  0  0  0  0  0  0  0  0  0  0  0
   10.1571   -2.4918   -1.6428 H   0  0  0  0  0  0  0  0  0  0  0  0
   11.7686   -4.1240   -0.4150 H   0  0  0  0  0  0  0  0  0  0  0  0
   12.4829   -2.7192    0.3527 H   0  0  0  0  0  0  0  0  0  0  0  0
   12.2532   -3.1189   -2.6909 H   0  0  0  0  0  0  0  0  0  0  0  0
   13.1175   -1.7964   -1.8872 H   0  0  0  0  0  0  0  0  0  0  0  0
   14.7123   -3.3505   -1.0468 H   0  0  0  0  0  0  0  0  0  0  0  0
   16.0189   -4.9618   -2.1888 H   0  0  0  0  0  0  0  0  0  0  0  0
   15.2604   -6.4776   -2.2053 H   0  0  0  0  0  0  0  0  0  0  0  0
   11.2506   -0.1195   -2.0822 H   0  0  0  0  0  0  0  0  0  0  0  0
   11.8226    2.1752   -2.4822 H   0  0  0  0  0  0  0  0  0  0  0  0
   12.0754    3.8700   -0.6863 H   0  0  0  0  0  0  0  0  0  0  0  0
   14.2178    4.5046    0.2207 H   0  0  0  0  0  0  0  0  0  0  0  0
   15.0578    3.2114   -0.6307 H   0  0  0  0  0  0  0  0  0  0  0  0
   13.9160    2.8291    0.6745 H   0  0  0  0  0  0  0  0  0  0  0  0
   12.4391    4.4070   -3.0702 H   0  0  0  0  0  0  0  0  0  0  0  0
   14.1654    4.0368   -2.9120 H   0  0  0  0  0  0  0  0  0  0  0  0
   13.4606    5.3924   -2.0199 H   0  0  0  0  0  0  0  0  0  0  0  0
   13.8804    1.5753   -3.2933 H   0  0  0  0  0  0  0  0  0  0  0  0
   15.7658    0.5962   -3.4353 H   0  0  0  0  0  0  0  0  0  0  0  0
   15.7394   -0.9204   -2.5399 H   0  0  0  0  0  0  0  0  0  0  0  0
   17.0894    1.5329   -1.2994 H   0  0  0  0  0  0  0  0  0  0  0  0
   17.8696    0.7271   -2.6416 H   0  0  0  0  0  0  0  0  0  0  0  0
   17.9124   -1.4250   -1.4544 H   0  0  0  0  0  0  0  0  0  0  0  0
   18.8501   -0.1633   -0.6847 H   0  0  0  0  0  0  0  0  0  0  0  0
   16.1447   -1.2444    0.2134 H   0  0  0  0  0  0  0  0  0  0  0  0
   17.6919   -1.5694    0.9495 H   0  0  0  0  0  0  0  0  0  0  0  0
   16.5368    1.2806    0.8476 H   0  0  0  0  0  0  0  0  0  0  0  0
   16.2017    0.1242    2.1454 H   0  0  0  0  0  0  0  0  0  0  0  0
   20.3730    0.7786    4.4796 H   0  0  0  0  0  0  0  0  0  0  0  0
   20.9197    2.5173    2.5147 H   0  0  0  0  0  0  0  0  0  0  0  0
  1  2  1  0
  2  3  1  0
  3  4  1  0
  3  5  1  0
  5  6  1  0
  6  7  1  0
  7  8  1  0
  8  9  2  0
  8 10  1  0
 10 11  1  0
 11 12  1  0
 12 13  1  0
 13 14  1  0
 14 15  1  0
 15 16  1  0
 16 17  1  0
 16 18  1  0
 18 19  2  0
 18 20  1  0
 20 21  1  0
 21 22  1  0
 21 23  1  0
 23 24  1  0
 24 25  2  0
 25 26  1  0
 26 27  2  0
 27 28  1  0
 28 29  2  0
 23 30  1  0
 15 31  1  0
 31 32  1  0
  6 33  1  0
 33 34  1  0
  5 35  1  0
 35 36  1  0
 35 37  1  0
 37 38  2  0
 37 39  1  0
 39 40  1  0
 40 41  1  0
 40 42  1  0
 39 43  1  0
 43 44  1  0
 44 45  2  0
 44 46  1  0
 46 47  1  0
 47 48  1  0
 47 49  1  0
 46 50  1  0
 50 51  1  0
 50 52  1  0
 52 53  2  0
 52 54  1  0
 54 55  1  0
 55 56  1  0
 56 57  1  0
 57 58  2  0
 58 59  1  0
 59 60  2  0
 60 61  1  0
 59 62  1  0
 62 63  1  0
 63 64  2  0
 63 65  1  0
 65 66  1  0
 66 67  1  0
 67 68  1  0
 68 69  1  0
 69 70  1  0
 70 71  2  0
 70 72  1  0
 65 73  1  0
 73 74  1  0
 74 75  2  0
 74 76  1  0
 76 77  1  0
 77 78  1  0
 77 79  1  0
 76 80  1  0
 80 81  1  0
 81 82  2  0
 81 83  1  0
 83 84  1  0
 84 85  1  0
 85 86  1  0
 86 87  1  0
 87 88  1  0
 88 89  1  0
 89 90  2  0
 89 91  1  0
 91 92  2  0
 92 93  1  0
 93 94  2  0
 14 10  1  0
 29 24  1  0
 61 56  2  0
 93 88  1  0
  1 95  1  0
  1 96  1  0
  1 97  1  0
  2 98  1  0
  2 99  1  0
  3100  1  1
  4101  1  0
  4102  1  0
  4103  1  0
  5104  1  6
  6105  1  6
  7106  1  0
  7107  1  0
 11108  1  0
 11109  1  0
 12110  1  0
 12111  1  0
 13112  1  0
 13113  1  0
 14114  1  6
 15115  1  6
 16116  1  6
 17117  1  0
 17118  1  0
 17119  1  0
 20120  1  0
 21121  1  1
 22122  1  0
 22123  1  0
 22124  1  0
 23125  1  1
 25126  1  0
 26127  1  0
 27128  1  0
 28129  1  0
 29130  1  0
 30131  1  0
 32132  1  0
 32133  1  0
 32134  1  0
 34135  1  0
 34136  1  0
 34137  1  0
 36138  1  0
 36139  1  0
 36140  1  0
 39141  1  1
 40142  1  0
 41143  1  0
 41144  1  0
 41145  1  0
 42146  1  0
 42147  1  0
 42148  1  0
 43149  1  0
 46150  1  6
 47151  1  0
 48152  1  0
 48153  1  0
 48154  1  0
 49155  1  0
 49156  1  0
 49157  1  0
 51158  1  0
 51159  1  0
 51160  1  0
 55161  1  0
 55162  1  0
 57163  1  0
 58164  1  0
 60165  1  0
 61166  1  0
 62167  1  0
 65168  1  1
 66169  1  0
 66170  1  0
 67171  1  0
 67172  1  0
 68173  1  0
 68174  1  0
 69175  1  0
 72176  1  0
 72177  1  0
 73178  1  0
 76179  1  6
 77180  1  0
 78181  1  0
 78182  1  0
 78183  1  0
 79184  1  0
 79185  1  0
 79186  1  0
 80187  1  0
 83188  1  0
 83189  1  0
 84190  1  0
 84191  1  0
 85192  1  0
 85193  1  0
 86194  1  0
 86195  1  0
 87196  1  0
 87197  1  0
 91198  1  0
 92199  1  0
M  END
$$$$

     RDKit          3D

199202  0  0  0  0  0  0  0  0999 V2000
   -5.1485    0.7832    4.0931 C   0  0  0  0  0  0  0  0  0  0  0  0
   -5.5687   -0.6672    3.9259 C   0  0  0  0  0  0  0  0  0  0  0  0
   -6.8156   -0.9122    3.0299 C   0  0  2  0  0  0  0  0  0  0  0  0
   -7.3895   -2.2798    3.4537 C   0  0  0  0  0  0  0  0  0  0  0  0
   -6.5241   -0.8650    1.4824 C   0  0  1  0  0  0  0  0  0  0  0  0
   -7.7760   -1.3495    0.6219 C   0  0  1  0  0  0  0  0  0  0  0  0
   -7.8732   -0.6861   -0.7645 C   0  0  0  0  0  0  0  0  0  0  0  0
   -9.0812   -1.0908   -1.5849 C   0  0  0  0  0  0  0  0  0  0  0  0
   -8.9486   -1.9275   -2.4825 O   0  0  0  0  0  0  0  0  0  0  0  0
  -10.3108   -0.5303   -1.2853 N   0  0  0  0  0  0  0  0  0  0  0  0
  -10.6377    0.3939   -0.2147 C   0  0  0  0  0  0  0  0  0  0  0  0
  -12.0643    0.0312    0.1890 C   0  0  0  0  0  0  0  0  0  0  0  0
  -12.4637   -1.1234   -0.7323 C   0  0  0  0  0  0  0  0  0  0  0  0
  -11.5399   -1.0060   -1.9435 C   0  0  1  0  0  0  0  0  0  0  0  0
  -12.0264   -0.1370   -3.1649 C   0  0  1  0  0  0  0  0  0  0  0  0
  -12.9076    1.0994   -2.8543 C   0  0  1  0  0  0  0  0  0  0  0  0
  -12.9207    2.1072   -4.0081 C   0  0  0  0  0  0  0  0  0  0  0  0
  -14.3627    0.7028   -2.5840 C   0  0  0  0  0  0  0  0  0  0  0  0
  -14.8141   -0.4067   -2.8484 O   0  0  0  0  0  0  0  0  0  0  0  0
  -15.1015    1.7005   -1.9868 N   0  0  0  0  0  0  0  0  0  0  0  0
  -16.5256    1.5474   -1.6336 C   0  0  2  0  0  0  0  0  0  0  0  0
  -17.2872    2.7625   -2.1668 C   0  0  0  0  0  0  0  0  0  0  0  0
  -16.7222    1.4273   -0.0949 C   0  0  1  0  0  0  0  0  0  0  0  0
  -16.4179    0.0469    0.4765 C   0  0  0  0  0  0  0  0  0  0  0  0
  -15.4978   -0.1591    1.5184 C   0  0  0  0  0  0  0  0  0  0  0  0
  -15.2675   -1.4381    2.0325 C   0  0  0  0  0  0  0  0  0  0  0  0
  -15.9700   -2.5314    1.5375 C   0  0  0  0  0  0  0  0  0  0  0  0
  -16.9083   -2.3435    0.5259 C   0  0  0  0  0  0  0  0  0  0  0  0
  -17.1390   -1.0648    0.0121 C   0  0  0  0  0  0  0  0  0  0  0  0
  -15.9345    2.4445    0.5508 O   0  0  0  0  0  0  0  0  0  0  0  0
  -10.8950    0.3006   -3.9433 O   0  0  0  0  0  0  0  0  0  0  0  0
  -10.5159   -0.6554   -4.9276 C   0  0  0  0  0  0  0  0  0  0  0  0
   -7.6070   -2.7755    0.4761 O   0  0  0  0  0  0  0  0  0  0  0  0
   -8.8186   -3.5223    0.4539 C   0  0  0  0  0  0  0  0  0  0  0  0
   -5.9766    0.4493    1.0522 N   0  0  0  0  0  0  0  0  0  0  0  0
   -6.8255    1.6269    1.2112 C   0  0  0  0  0  0  0  0  0  0  0  0
   -4.6613    0.7062    0.6331 C   0  0  0  0  0  0  0  0  0  0  0  0
   -4.3381    1.8494    0.2928 O   0  0  0  0  0  0  0  0  0  0  0  0
   -3.5696   -0.3946    0.6748 C   0  0  1  0  0  0  0  0  0  0  0  0
   -3.1075   -0.9156   -0.7044 C   0  0  0  0  0  0  0  0  0  0  0  0
   -2.3942    0.1339   -1.5617 C   0  0  0  0  0  0  0  0  0  0  0  0
   -4.2444   -1.5453   -1.5017 C   0  0  0  0  0  0  0  0  0  0  0  0
   -2.4329    0.2024    1.3846 N   0  0  0  0  0  0  0  0  0  0  0  0
   -1.8829   -0.3918    2.5038 C   0  0  0  0  0  0  0  0  0  0  0  0
   -2.3008   -1.4577    2.9498 O   0  0  0  0  0  0  0  0  0  0  0  0
   -0.7110    0.3838    3.1520 C   0  0  1  0  0  0  0  0  0  0  0  0
   -0.5896   -0.0124    4.6495 C   0  0  0  0  0  0  0  0  0  0  0  0
    0.3117   -1.2185    4.9049 C   0  0  0  0  0  0  0  0  0  0  0  0
   -0.1701    1.1717    5.5301 C   0  0  0  0  0  0  0  0  0  0  0  0
    0.5462    0.3803    2.3741 N   0  0  0  0  0  0  0  0  0  0  0  0
    1.5443    1.3897    2.6976 C   0  0  0  0  0  0  0  0  0  0  0  0
    0.9255   -0.7440    1.6374 C   0  0  0  0  0  0  0  0  0  0  0  0
    0.1745   -1.6219    1.2452 O   0  0  0  0  0  0  0  0  0  0  0  0
    2.2481   -0.7204    1.3072 O   0  0  0  0  0  0  0  0  0  0  0  0
    2.6484   -1.6640    0.3055 C   0  0  0  0  0  0  0  0  0  0  0  0
    3.9304   -1.1516   -0.3190 C   0  0  0  0  0  0  0  0  0  0  0  0
    4.0306    0.1900   -0.6962 C   0  0  0  0  0  0  0  0  0  0  0  0
    5.2226    0.7098   -1.2010 C   0  0  0  0  0  0  0  0  0  0  0  0
    6.3448   -0.1091   -1.3398 C   0  0  0  0  0  0  0  0  0  0  0  0
    6.2410   -1.4652   -0.9934 C   0  0  0  0  0  0  0  0  0  0  0  0
    5.0434   -1.9804   -0.4818 C   0  0  0  0  0  0  0  0  0  0  0  0
    7.6071    0.3589   -1.7369 N   0  0  0  0  0  0  0  0  0  0  0  0
    7.9620    1.6758   -2.0023 C   0  0  0  0  0  0  0  0  0  0  0  0
    7.1850    2.6168   -2.1793 O   0  0  0  0  0  0  0  0  0  0  0  0
    9.4904    1.8900   -2.0554 C   0  0  1  0  0  0  0  0  0  0  0  0
    9.8386    3.1142   -1.1790 C   0  0  0  0  0  0  0  0  0  0  0  0
   11.3426    3.3665   -1.0549 C   0  0  0  0  0  0  0  0  0  0  0  0
   11.7225    4.1366    0.2070 C   0  0  0  0  0  0  0  0  0  0  0  0
   11.3866    3.5319    1.4930 N   0  0  0  0  0  0  0  0  0  0  0  0
   11.2223    2.2077    1.7801 C   0  0  0  0  0  0  0  0  0  0  0  0
   11.0532    1.2912    0.9883 O   0  0  0  0  0  0  0  0  0  0  0  0
   11.2198    1.9761    3.1241 N   0  0  0  0  0  0  0  0  0  0  0  0
   10.2049    0.6999   -1.5664 N   0  0  0  0  0  0  0  0  0  0  0  0
   11.1946    0.0974   -2.3199 C   0  0  0  0  0  0  0  0  0  0  0  0
   11.2952    0.2355   -3.5373 O   0  0  0  0  0  0  0  0  0  0  0  0
   12.1602   -0.7820   -1.5002 C   0  0  1  0  0  0  0  0  0  0  0  0
   11.5212   -2.1039   -1.0456 C   0  0  0  0  0  0  0  0  0  0  0  0
   11.2930   -3.0991   -2.1796 C   0  0  0  0  0  0  0  0  0  0  0  0
   12.3623   -2.7449    0.0615 C   0  0  0  0  0  0  0  0  0  0  0  0
   13.3829   -0.9603   -2.2853 N   0  0  0  0  0  0  0  0  0  0  0  0
   14.5050   -0.2402   -1.9382 C   0  0  0  0  0  0  0  0  0  0  0  0
   14.6283    0.3352   -0.8558 O   0  0  0  0  0  0  0  0  0  0  0  0
   15.6242   -0.2687   -2.9606 C   0  0  0  0  0  0  0  0  0  0  0  0
   16.7712   -1.1849   -2.5351 C   0  0  0  0  0  0  0  0  0  0  0  0
   17.5017   -0.6814   -1.2834 C   0  0  0  0  0  0  0  0  0  0  0  0
   18.7636   -1.4986   -1.0021 C   0  0  0  0  0  0  0  0  0  0  0  0
   19.4639   -1.0495    0.2872 C   0  0  0  0  0  0  0  0  0  0  0  0
   19.8972    0.3379    0.2518 N   0  0  0  0  0  0  0  0  0  0  0  0
   19.5078    1.2884    1.1412 C   0  0  0  0  0  0  0  0  0  0  0  0
   18.7747    1.1886    2.1066 O   0  0  0  0  0  0  0  0  0  0  0  0
   20.2124    2.5254    0.7859 C   0  0  0  0  0  0  0  0  0  0  0  0
   21.0140    2.2534   -0.2433 C   0  0  0  0  0  0  0  0  0  0  0  0
   20.8646    0.8277   -0.5639 C   0  0  0  0  0  0  0  0  0  0  0  0
   21.5298    0.2512   -1.4031 O   0  0  0  0  0  0  0  0  0  0  0  0
   -4.5090    0.8832    4.9815 H   0  0  0  0  0  0  0  0  0  0  0  0
   -6.0149    1.4341    4.2353 H   0  0  0  0  0  0  0  0  0  0  0  0
   -4.5602    1.1494    3.2481 H   0  0  0  0  0  0  0  0  0  0  0  0
   -4.7273   -1.2735    3.5748 H   0  0  0  0  0  0  0  0  0  0  0  0
   -5.7829   -1.0314    4.9403 H   0  0  0  0  0  0  0  0  0  0  0  0
   -7.5705   -0.1575    3.2837 H   0  0  0  0  0  0  0  0  0  0  0  0
   -8.4370   -2.3933    3.1497 H   0  0  0  0  0  0  0  0  0  0  0  0
   -6.7954   -3.0997    3.0410 H   0  0  0  0  0  0  0  0  0  0  0  0
   -7.3989   -2.3903    4.5461 H   0  0  0  0  0  0  0  0  0  0  0  0
   -5.7603   -1.6253    1.3123 H   0  0  0  0  0  0  0  0  0  0  0  0
   -8.6844   -1.1540    1.2036 H   0  0  0  0  0  0  0  0  0  0  0  0
   -7.9110    0.3983   -0.6972 H   0  0  0  0  0  0  0  0  0  0  0  0
   -6.9965   -0.9366   -1.3595 H   0  0  0  0  0  0  0  0  0  0  0  0
  -10.5894    1.4114   -0.6161 H   0  0  0  0  0  0  0  0  0  0  0  0
   -9.9550    0.3314    0.6222 H   0  0  0  0  0  0  0  0  0  0  0  0
  -12.1035   -0.2739    1.2395 H   0  0  0  0  0  0  0  0  0  0  0  0
  -12.7330    0.8912    0.0870 H   0  0  0  0  0  0  0  0  0  0  0  0
  -13.5268   -1.1731   -0.9452 H   0  0  0  0  0  0  0  0  0  0  0  0
  -12.2235   -2.0635   -0.2063 H   0  0  0  0  0  0  0  0  0  0  0  0
  -11.3526   -2.0157   -2.3328 H   0  0  0  0  0  0  0  0  0  0  0  0
  -12.6264   -0.8182   -3.7937 H   0  0  0  0  0  0  0  0  0  0  0  0
  -12.5209    1.6205   -1.9808 H   0  0  0  0  0  0  0  0  0  0  0  0
  -11.9507    2.5984   -4.1064 H   0  0  0  0  0  0  0  0  0  0  0  0
  -13.1748    1.6152   -4.9566 H   0  0  0  0  0  0  0  0  0  0  0  0
  -13.6606    2.9009   -3.8540 H   0  0  0  0  0  0  0  0  0  0  0  0
  -14.6686    2.5978   -1.7973 H   0  0  0  0  0  0  0  0  0  0  0  0
  -16.9205    0.6627   -2.1478 H   0  0  0  0  0  0  0  0  0  0  0  0
  -18.3573    2.6679   -1.9487 H   0  0  0  0  0  0  0  0  0  0  0  0
  -16.9219    3.6915   -1.7170 H   0  0  0  0  0  0  0  0  0  0  0  0
  -17.1705    2.8479   -3.2528 H   0  0  0  0  0  0  0  0  0  0  0  0
  -17.7686    1.6423    0.1611 H   0  0  0  0  0  0  0  0  0  0  0  0
  -14.9511    0.6712    1.9565 H   0  0  0  0  0  0  0  0  0  0  0  0
  -14.5599   -1.5830    2.8514 H   0  0  0  0  0  0  0  0  0  0  0  0
  -15.8012   -3.5264    1.9398 H   0  0  0  0  0  0  0  0  0  0  0  0
  -17.4810   -3.1880    0.1559 H   0  0  0  0  0  0  0  0  0  0  0  0
  -17.8936   -0.9479   -0.7634 H   0  0  0  0  0  0  0  0  0  0  0  0
  -15.0132    2.2340    0.3231 H   0  0  0  0  0  0  0  0  0  0  0  0
  -11.2722   -0.7055   -5.7199 H   0  0  0  0  0  0  0  0  0  0  0  0
  -10.3876   -1.6516   -4.4826 H   0  0  0  0  0  0  0  0  0  0  0  0
   -9.5633   -0.3469   -5.3693 H   0  0  0  0  0  0  0  0  0  0  0  0
   -9.3464   -3.4084   -0.4932 H   0  0  0  0  0  0  0  0  0  0  0  0
   -8.5658   -4.5807    0.5749 H   0  0  0  0  0  0  0  0  0  0  0  0
   -9.4803   -3.2339    1.2783 H   0  0  0  0  0  0  0  0  0  0  0  0
   -7.8367    1.3517    1.5346 H   0  0  0  0  0  0  0  0  0  0  0  0
   -6.3764    2.3015    1.9508 H   0  0  0  0  0  0  0  0  0  0  0  0
   -6.8772    2.1723    0.2582 H   0  0  0  0  0  0  0  0  0  0  0  0
   -3.9031   -1.2452    1.2709 H   0  0  0  0  0  0  0  0  0  0  0  0
   -2.3645   -1.7063   -0.5080 H   0  0  0  0  0  0  0  0  0  0  0  0
   -3.0597    0.9583   -1.8288 H   0  0  0  0  0  0  0  0  0  0  0  0
   -2.0406   -0.3257   -2.4904 H   0  0  0  0  0  0  0  0  0  0  0  0
   -1.5176    0.5443   -1.0518 H   0  0  0  0  0  0  0  0  0  0  0  0
   -3.8464   -2.1125   -2.3521 H   0  0  0  0  0  0  0  0  0  0  0  0
   -4.9043   -0.7739   -1.9077 H   0  0  0  0  0  0  0  0  0  0  0  0
   -4.8319   -2.2336   -0.8919 H   0  0  0  0  0  0  0  0  0  0  0  0
   -2.1282    1.1195    1.0851 H   0  0  0  0  0  0  0  0  0  0  0  0
   -1.0483    1.4330    3.1304 H   0  0  0  0  0  0  0  0  0  0  0  0
   -1.5938   -0.2797    5.0077 H   0  0  0  0  0  0  0  0  0  0  0  0
   -0.0020   -2.0773    4.3030 H   0  0  0  0  0  0  0  0  0  0  0  0
    0.2527   -1.5178    5.9576 H   0  0  0  0  0  0  0  0  0  0  0  0
    1.3599   -0.9977    4.6883 H   0  0  0  0  0  0  0  0  0  0  0  0
   -0.8130    2.0406    5.3404 H   0  0  0  0  0  0  0  0  0  0  0  0
    0.8677    1.4709    5.3643 H   0  0  0  0  0  0  0  0  0  0  0  0
   -0.2716    0.9179    6.5906 H   0  0  0  0  0  0  0  0  0  0  0  0
    1.0630    2.3321    2.9598 H   0  0  0  0  0  0  0  0  0  0  0  0
    2.2004    1.5627    1.8373 H   0  0  0  0  0  0  0  0  0  0  0  0
    2.1575    1.0334    3.5289 H   0  0  0  0  0  0  0  0  0  0  0  0
    2.8044   -2.6367    0.7787 H   0  0  0  0  0  0  0  0  0  0  0  0
    1.9023   -1.7551   -0.4923 H   0  0  0  0  0  0  0  0  0  0  0  0
    3.1462    0.8326   -0.6408 H   0  0  0  0  0  0  0  0  0  0  0  0
    5.2445    1.7635   -1.4512 H   0  0  0  0  0  0  0  0  0  0  0  0
    7.0812   -2.1389   -1.1200 H   0  0  0  0  0  0  0  0  0  0  0  0
    4.9985   -3.0273   -0.1835 H   0  0  0  0  0  0  0  0  0  0  0  0
    8.3870   -0.2940   -1.7210 H   0  0  0  0  0  0  0  0  0  0  0  0
    9.7634    2.0938   -3.1008 H   0  0  0  0  0  0  0  0  0  0  0  0
    9.3446    4.0108   -1.5813 H   0  0  0  0  0  0  0  0  0  0  0  0
    9.3877    2.9662   -0.1888 H   0  0  0  0  0  0  0  0  0  0  0  0
   11.9275    2.4396   -1.0641 H   0  0  0  0  0  0  0  0  0  0  0  0
   11.6690    3.9339   -1.9327 H   0  0  0  0  0  0  0  0  0  0  0  0
   11.2582    5.1283    0.1925 H   0  0  0  0  0  0  0  0  0  0  0  0
   12.8034    4.2803    0.2160 H   0  0  0  0  0  0  0  0  0  0  0  0
   11.1957    4.1644    2.2596 H   0  0  0  0  0  0  0  0  0  0  0  0
   11.9047    2.4885    3.6629 H   0  0  0  0  0  0  0  0  0  0  0  0
   11.1568    0.9953    3.3648 H   0  0  0  0  0  0  0  0  0  0  0  0
   10.3373    0.6753   -0.5477 H   0  0  0  0  0  0  0  0  0  0  0  0
   12.4029   -0.2031   -0.6023 H   0  0  0  0  0  0  0  0  0  0  0  0
   10.5375   -1.8781   -0.6040 H   0  0  0  0  0  0  0  0  0  0  0  0
   12.2359   -3.4337   -2.6318 H   0  0  0  0  0  0  0  0  0  0  0  0
   10.6726   -2.6697   -2.9680 H   0  0  0  0  0  0  0  0  0  0  0  0
   10.7864   -3.9907   -1.8043 H   0  0  0  0  0  0  0  0  0  0  0  0
   13.3719   -2.9908   -0.2875 H   0  0  0  0  0  0  0  0  0  0  0  0
   12.4573   -2.0626    0.9107 H   0  0  0  0  0  0  0  0  0  0  0  0
   11.8921   -3.6615    0.4283 H   0  0  0  0  0  0  0  0  0  0  0  0
   13.2242   -1.0784   -3.2892 H   0  0  0  0  0  0  0  0  0  0  0  0
   15.2316   -0.6102   -3.9253 H   0  0  0  0  0  0  0  0  0  0  0  0
   15.9801    0.7583   -3.1062 H   0  0  0  0  0  0  0  0  0  0  0  0
   17.4871   -1.2405   -3.3654 H   0  0  0  0  0  0  0  0  0  0  0  0
   16.3942   -2.2049   -2.3558 H   0  0  0  0  0  0  0  0  0  0  0  0
   16.8391   -0.7506   -0.4092 H   0  0  0  0  0  0  0  0  0  0  0  0
   17.7683    0.3739   -1.4139 H   0  0  0  0  0  0  0  0  0  0  0  0
   18.4963   -2.5587   -0.9055 H   0  0  0  0  0  0  0  0  0  0  0  0
   19.4514   -1.4192   -1.8530 H   0  0  0  0  0  0  0  0  0  0  0  0
   20.3608   -1.6641    0.4311 H   0  0  0  0  0  0  0  0  0  0  0  0
   18.8058   -1.2090    1.1493 H   0  0  0  0  0  0  0  0  0  0  0  0
   20.0794    3.4597    1.3008 H   0  0  0  0  0  0  0  0  0  0  0  0
   21.6867    2.9164   -0.7579 H   0  0  0  0  0  0  0  0  0  0  0  0
  1  2  1  0
  2  3  1  0
  3  4  1  0
  3  5  1  0
  5  6  1  0
  6  7  1  0
  7  8  1  0
  8  9  2  0
  8 10  1  0
 10 11  1  0
 11 12  1  0
 12 13  1  0
 13 14  1  0
 14 15  1  0
 15 16  1  0
 16 17  1  0
 16 18  1  0
 18 19  2  0
 18 20  1  0
 20 21  1  0
 21 22  1  0
 21 23  1  0
 23 24  1  0
 24 25  2  0
 25 26  1  0
 26 27  2  0
 27 28  1  0
 28 29  2  0
 23 30  1  0
 15 31  1  0
 31 32  1  0
  6 33  1  0
 33 34  1  0
  5 35  1  0
 35 36  1  0
 35 37  1  0
 37 38  2  0
 37 39  1  0
 39 40  1  0
 40 41  1  0
 40 42  1  0
 39 43  1  0
 43 44  1  0
 44 45  2  0
 44 46  1  0
 46 47  1  0
 47 48  1  0
 47 49  1  0
 46 50  1  0
 50 51  1  0
 50 52  1  0
 52 53  2  0
 52 54  1  0
 54 55  1  0
 55 56  1  0
 56 57  1  0
 57 58  2  0
 58 59  1  0
 59 60  2  0
 60 61  1  0
 59 62  1  0
 62 63  1  0
 63 64  2  0
 63 65  1  0
 65 66  1  0
 66 67  1  0
 67 68  1  0
 68 69  1  0
 69 70  1  0
 70 71  2  0
 70 72  1  0
 65 73  1  0
 73 74  1  0
 74 75  2  0
 74 76  1  0
 76 77  1  0
 77 78  1  0
 77 79  1  0
 76 80  1  0
 80 81  1  0
 81 82  2  0
 81 83  1  0
 83 84  1  0
 84 85  1  0
 85 86  1  0
 86 87  1  0
 87 88  1  0
 88 89  1  0
 89 90  2  0
 89 91  1  0
 91 92  2  0
 92 93  1  0
 93 94  2  0
 14 10  1  0
 29 24  1  0
 61 56  2  0
 93 88  1  0
  1 95  1  0
  1 96  1  0
  1 97  1  0
  2 98  1  0
  2 99  1  0
  3100  1  6
  4101  1  0
  4102  1  0
  4103  1  0
  5104  1  1
  6105  1  1
  7106  1  0
  7107  1  0
 11108  1  0
 11109  1  0
 12110  1  0
 12111  1  0
 13112  1  0
 13113  1  0
 14114  1  6
 15115  1  6
 16116  1  1
 17117  1  0
 17118  1  0
 17119  1  0
 20120  1  0
 21121  1  6
 22122  1  0
 22123  1  0
 22124  1  0
 23125  1  6
 25126  1  0
 26127  1  0
 27128  1  0
 28129  1  0
 29130  1  0
 30131  1  0
 32132  1  0
 32133  1  0
 32134  1  0
 34135  1  0
 34136  1  0
 34137  1  0
 36138  1  0
 36139  1  0
 36140  1  0
 39141  1  1
 40142  1  0
 41143  1  0
 41144  1  0
 41145  1  0
 42146  1  0
 42147  1  0
 42148  1  0
 43149  1  0
 46150  1  1
 47151  1  0
 48152  1  0
 48153  1  0
 48154  1  0
 49155  1  0
 49156  1  0
 49157  1  0
 51158  1  0
 51159  1  0
 51160  1  0
 55161  1  0
 55162  1  0
 57163  1  0
 58164  1  0
 60165  1  0
 61166  1  0
 62167  1  0
 65168  1  6
 66169  1  0
 66170  1  0
 67171  1  0
 67172  1  0
 68173  1  0
 68174  1  0
 69175  1  0
 72176  1  0
 72177  1  0
 73178  1  0
 76179  1  1
 77180  1  0
 78181  1  0
 78182  1  0
 78183  1  0
 79184  1  0
 79185  1  0
 79186  1  0
 80187  1  0
 83188  1  0
 83189  1  0
 84190  1  0
 84191  1  0
 85192  1  0
 85193  1  0
 86194  1  0
 86195  1  0
 87196  1  0
 87197  1  0
 91198  1  0
 92199  1  0
M  END
$$$$

     RDKit          3D

199202  0  0  0  0  0  0  0  0999 V2000
    2.6085    3.0491   -1.7202 C   0  0  0  0  0  0  0  0  0  0  0  0
    3.8328    2.5158   -0.9833 C   0  0  0  0  0  0  0  0  0  0  0  0
    4.5117    3.5082    0.0018 C   0  0  2  0  0  0  0  0  0  0  0  0
    4.8622    4.8025   -0.7542 C   0  0  0  0  0  0  0  0  0  0  0  0
    5.7694    2.8487    0.7148 C   0  0  1  0  0  0  0  0  0  0  0  0
    6.4491    3.7292    1.8360 C   0  0  1  0  0  0  0  0  0  0  0  0
    7.7496    3.0876    2.3687 C   0  0  0  0  0  0  0  0  0  0  0  0
    8.9834    3.3027    1.4965 C   0  0  0  0  0  0  0  0  0  0  0  0
    9.3358    4.4342    1.1527 O   0  0  0  0  0  0  0  0  0  0  0  0
    9.7667    2.2095    1.1919 N   0  0  0  0  0  0  0  0  0  0  0  0
    9.5285    0.8266    1.5616 C   0  0  0  0  0  0  0  0  0  0  0  0
   10.6614    0.0317    0.9368 C   0  0  0  0  0  0  0  0  0  0  0  0
   11.7748    1.0584    0.7962 C   0  0  0  0  0  0  0  0  0  0  0  0
   11.0484    2.3666    0.4719 C   0  0  1  0  0  0  0  0  0  0  0  0
   10.8070    2.6871   -1.0350 C   0  0  1  0  0  0  0  0  0  0  0  0
   12.0111    3.2690   -1.8092 C   0  0  1  0  0  0  0  0  0  0  0  0
   12.4794    4.6032   -1.2233 C   0  0  0  0  0  0  0  0  0  0  0  0
   13.1961    2.3211   -2.0019 C   0  0  0  0  0  0  0  0  0  0  0  0
   14.3575    2.6570   -1.7920 O   0  0  0  0  0  0  0  0  0  0  0  0
   12.8600    1.0987   -2.5333 N   0  0  0  0  0  0  0  0  0  0  0  0
   13.8559    0.1031   -2.9397 C   0  0  2  0  0  0  0  0  0  0  0  0
   14.3338    0.4448   -4.3558 C   0  0  0  0  0  0  0  0  0  0  0  0
   13.2754   -1.3402   -2.8521 C   0  0  1  0  0  0  0  0  0  0  0  0
   14.2101   -2.4312   -3.3451 C   0  0  0  0  0  0  0  0  0  0  0  0
   13.7898   -3.3098   -4.3549 C   0  0  0  0  0  0  0  0  0  0  0  0
   14.6453   -4.3006   -4.8381 C   0  0  0  0  0  0  0  0  0  0  0  0
   15.9311   -4.4252   -4.3147 C   0  0  0  0  0  0  0  0  0  0  0  0
   16.3547   -3.5733   -3.2979 C   0  0  0  0  0  0  0  0  0  0  0  0
   15.5006   -2.5836   -2.8113 C   0  0  0  0  0  0  0  0  0  0  0  0
   12.9022   -1.6285   -1.4936 O   0  0  0  0  0  0  0  0  0  0  0  0
   10.3171    1.5245   -1.7382 O   0  0  0  0  0  0  0  0  0  0  0  0
    9.0354    1.7442   -2.3210 C   0  0  0  0  0  0  0  0  0  0  0  0
    6.6529    5.0718    1.3997 O   0  0  0  0  0  0  0  0  0  0  0  0
    6.8637    6.0116    2.4461 C   0  0  0  0  0  0  0  0  0  0  0  0
    5.4288    1.4726    1.2423 N   0  0  0  0  0  0  0  0  0  0  0  0
    4.4643    1.3909    2.3293 C   0  0  0  0  0  0  0  0  0  0  0  0
    5.7231    0.3737    0.4225 C   0  0  0  0  0  0  0  0  0  0  0  0
    6.4640    0.5122   -0.5584 O   0  0  0  0  0  0  0  0  0  0  0  0
    5.2967   -1.0890    0.7943 C   0  0  1  0  0  0  0  0  0  0  0  0
    6.5069   -1.8190    1.4455 C   0  0  0  0  0  0  0  0  0  0  0  0
    6.3631   -3.3418    1.3356 C   0  0  0  0  0  0  0  0  0  0  0  0
    6.7619   -1.4246    2.9021 C   0  0  0  0  0  0  0  0  0  0  0  0
    4.0490   -1.3289    1.5299 N   0  0  0  0  0  0  0  0  0  0  0  0
    2.8273   -1.2773    0.8715 C   0  0  0  0  0  0  0  0  0  0  0  0
    2.7247   -0.8397   -0.2718 O   0  0  0  0  0  0  0  0  0  0  0  0
    1.6291   -1.8177    1.7124 C   0  0  1  0  0  0  0  0  0  0  0  0
    1.3723   -0.9632    2.9897 C   0  0  0  0  0  0  0  0  0  0  0  0
    0.6687    0.3691    2.7208 C   0  0  0  0  0  0  0  0  0  0  0  0
    0.5826   -1.7461    4.0472 C   0  0  0  0  0  0  0  0  0  0  0  0
    0.3963   -2.1215    0.9599 N   0  0  0  0  0  0  0  0  0  0  0  0
   -0.0588   -1.2178   -0.0945 C   0  0  0  0  0  0  0  0  0  0  0  0
   -0.2107   -3.3571    1.1439 C   0  0  0  0  0  0  0  0  0  0  0  0
    0.1936   -4.2048    1.9324 O   0  0  0  0  0  0  0  0  0  0  0  0
   -1.3112   -3.5124    0.3690 O   0  0  0  0  0  0  0  0  0  0  0  0
   -2.0746   -4.7010    0.5929 C   0  0  0  0  0  0  0  0  0  0  0  0
   -3.5200   -4.3508    0.3447 C   0  0  0  0  0  0  0  0  0  0  0  0
   -4.4127   -4.1999    1.4127 C   0  0  0  0  0  0  0  0  0  0  0  0
   -5.7414   -3.8259    1.1847 C   0  0  0  0  0  0  0  0  0  0  0  0
   -6.1964   -3.5822   -0.1113 C   0  0  0  0  0  0  0  0  0  0  0  0
   -5.3062   -3.7385   -1.1803 C   0  0  0  0  0  0  0  0  0  0  0  0
   -3.9811   -4.1186   -0.9555 C   0  0  0  0  0  0  0  0  0  0  0  0
   -7.5045   -3.1520   -0.4225 N   0  0  0  0  0  0  0  0  0  0  0  0
   -8.5652   -2.9946    0.4496 C   0  0  0  0  0  0  0  0  0  0  0  0
   -8.5839   -3.3043    1.6408 O   0  0  0  0  0  0  0  0  0  0  0  0
   -9.8135   -2.3761   -0.2125 C   0  0  1  0  0  0  0  0  0  0  0  0
  -10.7892   -3.4306   -0.7558 C   0  0  0  0  0  0  0  0  0  0  0  0
  -10.4531   -3.9432   -2.1603 C   0  0  0  0  0  0  0  0  0  0  0  0
   -9.6319   -5.2292   -2.1642 C   0  0  0  0  0  0  0  0  0  0  0  0
   -9.2976   -5.6071   -3.5249 N   0  0  0  0  0  0  0  0  0  0  0  0
   -8.2223   -6.4110   -3.7707 C   0  0  0  0  0  0  0  0  0  0  0  0
   -7.3952   -6.7747   -2.9506 O   0  0  0  0  0  0  0  0  0  0  0  0
   -8.1471   -6.7705   -5.0765 N   0  0  0  0  0  0  0  0  0  0  0  0
  -10.4663   -1.6072    0.8446 N   0  0  0  0  0  0  0  0  0  0  0  0
  -10.9630   -0.3417    0.6519 C   0  0  0  0  0  0  0  0  0  0  0  0
  -10.9125    0.2382   -0.4347 O   0  0  0  0  0  0  0  0  0  0  0  0
  -11.5273    0.3246    1.9274 C   0  0  1  0  0  0  0  0  0  0  0  0
  -10.3872    0.8060    2.8547 C   0  0  0  0  0  0  0  0  0  0  0  0
   -9.4998    1.8863    2.2267 C   0  0  0  0  0  0  0  0  0  0  0  0
  -10.9463    1.3057    4.1907 C   0  0  0  0  0  0  0  0  0  0  0  0
  -12.4261    1.4027    1.5247 N   0  0  0  0  0  0  0  0  0  0  0  0
  -13.7402    1.1048    1.2177 C   0  0  0  0  0  0  0  0  0  0  0  0
  -14.2540    0.0157    1.4477 O   0  0  0  0  0  0  0  0  0  0  0  0
  -14.4928    2.2812    0.6225 C   0  0  0  0  0  0  0  0  0  0  0  0
  -15.7962    1.8428   -0.0462 C   0  0  0  0  0  0  0  0  0  0  0  0
  -16.5673    3.0029   -0.6849 C   0  0  0  0  0  0  0  0  0  0  0  0
  -17.1657    4.0101    0.3038 C   0  0  0  0  0  0  0  0  0  0  0  0
  -18.2662    3.4502    1.2131 C   0  0  0  0  0  0  0  0  0  0  0  0
  -19.4678    3.0963    0.4848 N   0  0  0  0  0  0  0  0  0  0  0  0
  -19.8071    1.8421    0.0980 C   0  0  0  0  0  0  0  0  0  0  0  0
  -19.2138    0.7939    0.2699 O   0  0  0  0  0  0  0  0  0  0  0  0
  -21.0810    1.9402   -0.6215 C   0  0  0  0  0  0  0  0  0  0  0  0
  -21.4418    3.2238   -0.6363 C   0  0  0  0  0  0  0  0  0  0  0  0
  -20.4067    3.9840    0.0718 C   0  0  0  0  0  0  0  0  0  0  0  0
  -20.4427    5.1907    0.2290 O   0  0  0  0  0  0  0  0  0  0  0  0
    1.9172    3.5459   -1.0342 H   0  0  0  0  0  0  0  0  0  0  0  0
    2.8875    3.7470   -2.5142 H   0  0  0  0  0  0  0  0  0  0  0  0
    2.0744    2.2203   -2.1976 H   0  0  0  0  0  0  0  0  0  0  0  0
    4.5631    2.1667   -1.7225 H   0  0  0  0  0  0  0  0  0  0  0  0
    3.4880    1.6390   -0.4304 H   0  0  0  0  0  0  0  0  0  0  0  0
    3.7729    3.7602    0.7749 H   0  0  0  0  0  0  0  0  0  0  0  0
    4.0337    5.1593   -1.3700 H   0  0  0  0  0  0  0  0  0  0  0  0
    5.0601    5.6319   -0.0742 H   0  0  0  0  0  0  0  0  0  0  0  0
    5.7296    4.6572   -1.4057 H   0  0  0  0  0  0  0  0  0  0  0  0
    6.5241    2.7384   -0.0734 H   0  0  0  0  0  0  0  0  0  0  0  0
    5.7484    3.7871    2.6761 H   0  0  0  0  0  0  0  0  0  0  0  0
    7.5837    2.0341    2.5942 H   0  0  0  0  0  0  0  0  0  0  0  0
    8.0037    3.5466    3.3337 H   0  0  0  0  0  0  0  0  0  0  0  0
    8.5537    0.5079    1.1918 H   0  0  0  0  0  0  0  0  0  0  0  0
    9.5438    0.7538    2.6533 H   0  0  0  0  0  0  0  0  0  0  0  0
   10.9522   -0.8246    1.5512 H   0  0  0  0  0  0  0  0  0  0  0  0
   10.3652   -0.3529   -0.0437 H   0  0  0  0  0  0  0  0  0  0  0  0
   12.2787    1.1611    1.7659 H   0  0  0  0  0  0  0  0  0  0  0  0
   12.5343    0.7622    0.0755 H   0  0  0  0  0  0  0  0  0  0  0  0
   11.5778    3.2066    0.9350 H   0  0  0  0  0  0  0  0  0  0  0  0
   10.0334    3.4671   -1.0786 H   0  0  0  0  0  0  0  0  0  0  0  0
   11.6613    3.4767   -2.8312 H   0  0  0  0  0  0  0  0  0  0  0  0
   13.1894    5.0908   -1.9002 H   0  0  0  0  0  0  0  0  0  0  0  0
   11.6383    5.2892   -1.0778 H   0  0  0  0  0  0  0  0  0  0  0  0
   12.9896    4.4708   -0.2636 H   0  0  0  0  0  0  0  0  0  0  0  0
   11.8775    0.8249   -2.4805 H   0  0  0  0  0  0  0  0  0  0  0  0
   14.7022    0.1969   -2.2482 H   0  0  0  0  0  0  0  0  0  0  0  0
   13.5163    0.3423   -5.0784 H   0  0  0  0  0  0  0  0  0  0  0  0
   14.6915    1.4778   -4.4098 H   0  0  0  0  0  0  0  0  0  0  0  0
   15.1556   -0.2023   -4.6751 H   0  0  0  0  0  0  0  0  0  0  0  0
   12.3421   -1.3759   -3.4304 H   0  0  0  0  0  0  0  0  0  0  0  0
   12.7891   -3.2274   -4.7788 H   0  0  0  0  0  0  0  0  0  0  0  0
   14.3119   -4.9668   -5.6285 H   0  0  0  0  0  0  0  0  0  0  0  0
   16.6012   -5.1900   -4.6988 H   0  0  0  0  0  0  0  0  0  0  0  0
   17.3587   -3.6710   -2.8898 H   0  0  0  0  0  0  0  0  0  0  0  0
   15.8509   -1.9282   -2.0161 H   0  0  0  0  0  0  0  0  0  0  0  0
   13.2140   -2.5246   -1.2856 H   0  0  0  0  0  0  0  0  0  0  0  0
    8.7050    0.8134   -2.7878 H   0  0  0  0  0  0  0  0  0  0  0  0
    8.3107    2.0366   -1.5583 H   0  0  0  0  0  0  0  0  0  0  0  0
    9.1028    2.5184   -3.0929 H   0  0  0  0  0  0  0  0  0  0  0  0
    6.0170    6.0083    3.1391 H   0  0  0  0  0  0  0  0  0  0  0  0
    7.7923    5.8073    2.9847 H   0  0  0  0  0  0  0  0  0  0  0  0
    6.9372    7.0053    1.9980 H   0  0  0  0  0  0  0  0  0  0  0  0
    4.4943    2.2711    2.9695 H   0  0  0  0  0  0  0  0  0  0  0  0
    4.6784    0.5333    2.9669 H   0  0  0  0  0  0  0  0  0  0  0  0
    3.4621    1.3099    1.9087 H   0  0  0  0  0  0  0  0  0  0  0  0
    5.1370   -1.5594   -0.1878 H   0  0  0  0  0  0  0  0  0  0  0  0
    7.4075   -1.5537    0.8769 H   0  0  0  0  0  0  0  0  0  0  0  0
    6.2404   -3.6450    0.2903 H   0  0  0  0  0  0  0  0  0  0  0  0
    5.5026   -3.7125    1.9015 H   0  0  0  0  0  0  0  0  0  0  0  0
    7.2574   -3.8412    1.7224 H   0  0  0  0  0  0  0  0  0  0  0  0
    6.9338   -0.3494    2.9983 H   0  0  0  0  0  0  0  0  0  0  0  0
    5.9254   -1.6969    3.5527 H   0  0  0  0  0  0  0  0  0  0  0  0
    7.6549   -1.9311    3.2838 H   0  0  0  0  0  0  0  0  0  0  0  0
    4.0961   -1.9725    2.3088 H   0  0  0  0  0  0  0  0  0  0  0  0
    2.0121   -2.7841    2.0743 H   0  0  0  0  0  0  0  0  0  0  0  0
    2.3434   -0.7237    3.4429 H   0  0  0  0  0  0  0  0  0  0  0  0
   -0.3666    0.2203    2.3982 H   0  0  0  0  0  0  0  0  0  0  0  0
    1.1899    0.9504    1.9568 H   0  0  0  0  0  0  0  0  0  0  0  0
    0.6393    0.9750    3.6331 H   0  0  0  0  0  0  0  0  0  0  0  0
    1.0704   -2.6995    4.2732 H   0  0  0  0  0  0  0  0  0  0  0  0
   -0.4412   -1.9502    3.7177 H   0  0  0  0  0  0  0  0  0  0  0  0
    0.5230   -1.1774    4.9810 H   0  0  0  0  0  0  0  0  0  0  0  0
    0.3665   -1.5519   -1.0444 H   0  0  0  0  0  0  0  0  0  0  0  0
    0.2466   -0.1908    0.1080 H   0  0  0  0  0  0  0  0  0  0  0  0
   -1.1492   -1.2373   -0.1752 H   0  0  0  0  0  0  0  0  0  0  0  0
   -1.9559   -5.0941    1.6107 H   0  0  0  0  0  0  0  0  0  0  0  0
   -1.7502   -5.4722   -0.1142 H   0  0  0  0  0  0  0  0  0  0  0  0
   -4.0816   -4.3638    2.4360 H   0  0  0  0  0  0  0  0  0  0  0  0
   -6.3882   -3.7165    2.0494 H   0  0  0  0  0  0  0  0  0  0  0  0
   -5.6287   -3.5697   -2.2040 H   0  0  0  0  0  0  0  0  0  0  0  0
   -3.3051   -4.2226   -1.8018 H   0  0  0  0  0  0  0  0  0  0  0  0
   -7.6682   -2.9386   -1.3982 H   0  0  0  0  0  0  0  0  0  0  0  0
   -9.5042   -1.6860   -1.0033 H   0  0  0  0  0  0  0  0  0  0  0  0
  -10.8905   -4.2685   -0.0541 H   0  0  0  0  0  0  0  0  0  0  0  0
  -11.7843   -2.9677   -0.8207 H   0  0  0  0  0  0  0  0  0  0  0  0
   -9.9503   -3.1644   -2.7449 H   0  0  0  0  0  0  0  0  0  0  0  0
  -11.3955   -4.1501   -2.6839 H   0  0  0  0  0  0  0  0  0  0  0  0
  -10.2005   -6.0568   -1.7244 H   0  0  0  0  0  0  0  0  0  0  0  0
   -8.7130   -5.1232   -1.5858 H   0  0  0  0  0  0  0  0  0  0  0  0
  -10.0756   -5.7872   -4.1452 H   0  0  0  0  0  0  0  0  0  0  0  0
   -7.2893   -7.2623   -5.2944 H   0  0  0  0  0  0  0  0  0  0  0  0
   -8.3958   -6.0580   -5.7473 H   0  0  0  0  0  0  0  0  0  0  0  0
  -10.4589   -2.0209    1.7741 H   0  0  0  0  0  0  0  0  0  0  0  0
  -12.1138   -0.4376    2.4579 H   0  0  0  0  0  0  0  0  0  0  0  0
   -9.7401   -0.0536    3.0727 H   0  0  0  0  0  0  0  0  0  0  0  0
   -8.6793    2.1474    2.9034 H   0  0  0  0  0  0  0  0  0  0  0  0
  -10.0598    2.8024    2.0178 H   0  0  0  0  0  0  0  0  0  0  0  0
   -9.0501    1.5389    1.2917 H   0  0  0  0  0  0  0  0  0  0  0  0
  -10.1338    1.5830    4.8695 H   0  0  0  0  0  0  0  0  0  0  0  0
  -11.5382    0.5243    4.6797 H   0  0  0  0  0  0  0  0  0  0  0  0
  -11.5850    2.1835    4.0572 H   0  0  0  0  0  0  0  0  0  0  0  0
  -12.0021    2.1300    0.9599 H   0  0  0  0  0  0  0  0  0  0  0  0
  -13.8538    2.7829   -0.1148 H   0  0  0  0  0  0  0  0  0  0  0  0
  -14.6938    2.9841    1.4380 H   0  0  0  0  0  0  0  0  0  0  0  0
  -16.4298    1.3049    0.6678 H   0  0  0  0  0  0  0  0  0  0  0  0
  -15.5550    1.1190   -0.8368 H   0  0  0  0  0  0  0  0  0  0  0  0
  -17.3658    2.5926   -1.3137 H   0  0  0  0  0  0  0  0  0  0  0  0
  -15.8939    3.5415   -1.3634 H   0  0  0  0  0  0  0  0  0  0  0  0
  -17.5722    4.8517   -0.2724 H   0  0  0  0  0  0  0  0  0  0  0  0
  -16.3712    4.4291    0.9309 H   0  0  0  0  0  0  0  0  0  0  0  0
  -17.9104    2.5810    1.7744 H   0  0  0  0  0  0  0  0  0  0  0  0
  -18.5402    4.2240    1.9399 H   0  0  0  0  0  0  0  0  0  0  0  0
  -21.5908    1.0931   -1.0448 H   0  0  0  0  0  0  0  0  0  0  0  0
  -22.3148    3.6748   -1.0739 H   0  0  0  0  0  0  0  0  0  0  0  0
  1  2  1  0
  2  3  1  0
  3  4  1  0
  3  5  1  0
  5  6  1  0
  6  7  1  0
  7  8  1  0
  8  9  2  0
  8 10  1  0
 10 11  1  0
 11 12  1  0
 12 13  1  0
 13 14  1  0
 14 15  1  0
 15 16  1  0
 16 17  1  0
 16 18  1  0
 18 19  2  0
 18 20  1  0
 20 21  1  0
 21 22  1  0
 21 23  1  0
 23 24  1  0
 24 25  2  0
 25 26  1  0
 26 27  2  0
 27 28  1  0
 28 29  2  0
 23 30  1  0
 15 31  1  0
 31 32  1  0
  6 33  1  0
 33 34  1  0
  5 35  1  0
 35 36  1  0
 35 37  1  0
 37 38  2  0
 37 39  1  0
 39 40  1  0
 40 41  1  0
 40 42  1  0
 39 43  1  0
 43 44  1  0
 44 45  2  0
 44 46  1  0
 46 47  1  0
 47 48  1  0
 47 49  1  0
 46 50  1  0
 50 51  1  0
 50 52  1  0
 52 53  2  0
 52 54  1  0
 54 55  1  0
 55 56  1  0
 56 57  1  0
 57 58  2  0
 58 59  1  0
 59 60  2  0
 60 61  1  0
 59 62  1  0
 62 63  1  0
 63 64  2  0
 63 65  1  0
 65 66  1  0
 66 67  1  0
 67 68  1  0
 68 69  1  0
 69 70  1  0
 70 71  2  0
 70 72  1  0
 65 73  1  0
 73 74  1  0
 74 75  2  0
 74 76  1  0
 76 77  1  0
 77 78  1  0
 77 79  1  0
 76 80  1  0
 80 81  1  0
 81 82  2  0
 81 83  1  0
 83 84  1  0
 84 85  1  0
 85 86  1  0
 86 87  1  0
 87 88  1  0
 88 89  1  0
 89 90  2  0
 89 91  1  0
 91 92  2  0
 92 93  1  0
 93 94  2  0
 14 10  1  0
 29 24  1  0
 61 56  2  0
 93 88  1  0
  1 95  1  0
  1 96  1  0
  1 97  1  0
  2 98  1  0
  2 99  1  0
  3100  1  1
  4101  1  0
  4102  1  0
  4103  1  0
  5104  1  6
  6105  1  1
  7106  1  0
  7107  1  0
 11108  1  0
 11109  1  0
 12110  1  0
 12111  1  0
 13112  1  0
 13113  1  0
 14114  1  1
 15115  1  1
 16116  1  6
 17117  1  0
 17118  1  0
 17119  1  0
 20120  1  0
 21121  1  1
 22122  1  0
 22123  1  0
 22124  1  0
 23125  1  6
 25126  1  0
 26127  1  0
 27128  1  0
 28129  1  0
 29130  1  0
 30131  1  0
 32132  1  0
 32133  1  0
 32134  1  0
 34135  1  0
 34136  1  0
 34137  1  0
 36138  1  0
 36139  1  0
 36140  1  0
 39141  1  6
 40142  1  0
 41143  1  0
 41144  1  0
 41145  1  0
 42146  1  0
 42147  1  0
 42148  1  0
 43149  1  0
 46150  1  1
 47151  1  0
 48152  1  0
 48153  1  0
 48154  1  0
 49155  1  0
 49156  1  0
 49157  1  0
 51158  1  0
 51159  1  0
 51160  1  0
 55161  1  0
 55162  1  0
 57163  1  0
 58164  1  0
 60165  1  0
 61166  1  0
 62167  1  0
 65168  1  6
 66169  1  0
 66170  1  0
 67171  1  0
 67172  1  0
 68173  1  0
 68174  1  0
 69175  1  0
 72176  1  0
 72177  1  0
 73178  1  0
 76179  1  1
 77180  1  0
 78181  1  0
 78182  1  0
 78183  1  0
 79184  1  0
 79185  1  0
 79186  1  0
 80187  1  0
 83188  1  0
 83189  1  0
 84190  1  0
 84191  1  0
 85192  1  0
 85193  1  0
 86194  1  0
 86195  1  0
 87196  1  0
 87197  1  0
 91198  1  0
 92199  1  0
M  END
$$$$

     RDKit          3D

199202  0  0  0  0  0  0  0  0999 V2000
    7.1167   -2.7253   -2.4827 C   0  0  0  0  0  0  0  0  0  0  0  0
    6.9519   -1.9222   -1.1994 C   0  0  0  0  0  0  0  0  0  0  0  0
    6.5634   -0.4466   -1.4350 C   0  0  2  0  0  0  0  0  0  0  0  0
    7.5660    0.3029   -2.3217 C   0  0  0  0  0  0  0  0  0  0  0  0
    6.1766    0.2729   -0.1066 C   0  0  1  0  0  0  0  0  0  0  0  0
    7.1753    0.0915    1.1352 C   0  0  1  0  0  0  0  0  0  0  0  0
    8.6570    0.4839    0.9053 C   0  0  0  0  0  0  0  0  0  0  0  0
    9.5259    0.0967    2.0774 C   0  0  0  0  0  0  0  0  0  0  0  0
    9.6259    0.8787    3.0404 O   0  0  0  0  0  0  0  0  0  0  0  0
    9.9854   -1.2020    2.1812 N   0  0  0  0  0  0  0  0  0  0  0  0
   10.1537   -1.6891    3.5378 C   0  0  0  0  0  0  0  0  0  0  0  0
   10.6374   -3.1343    3.4092 C   0  0  0  0  0  0  0  0  0  0  0  0
   10.7336   -3.3627    1.9131 C   0  0  0  0  0  0  0  0  0  0  0  0
   10.9588   -1.9469    1.3278 C   0  0  1  0  0  0  0  0  0  0  0  0
   10.9767   -1.8995   -0.2193 C   0  0  1  0  0  0  0  0  0  0  0  0
   12.0816   -0.9610   -0.7703 C   0  0  1  0  0  0  0  0  0  0  0  0
   12.1732   -1.0455   -2.3090 C   0  0  0  0  0  0  0  0  0  0  0  0
   11.9228    0.5067   -0.3951 C   0  0  0  0  0  0  0  0  0  0  0  0
   11.1655    1.2462   -1.0197 O   0  0  0  0  0  0  0  0  0  0  0  0
   12.7846    0.9184    0.5824 N   0  0  0  0  0  0  0  0  0  0  0  0
   13.0002    2.2874    1.1024 C   0  0  2  0  0  0  0  0  0  0  0  0
   12.4284    2.3806    2.5268 C   0  0  0  0  0  0  0  0  0  0  0  0
   12.5263    3.5230    0.2700 C   0  0  1  0  0  0  0  0  0  0  0  0
   13.1759    3.8181   -1.0763 C   0  0  0  0  0  0  0  0  0  0  0  0
   14.1315    2.9959   -1.6787 C   0  0  0  0  0  0  0  0  0  0  0  0
   14.7071    3.3478   -2.9080 C   0  0  0  0  0  0  0  0  0  0  0  0
   14.3257    4.5291   -3.5437 C   0  0  0  0  0  0  0  0  0  0  0  0
   13.3846    5.3650   -2.9626 C   0  0  0  0  0  0  0  0  0  0  0  0
   12.8118    5.0070   -1.7414 C   0  0  0  0  0  0  0  0  0  0  0  0
   11.1012    3.5204    0.1194 O   0  0  0  0  0  0  0  0  0  0  0  0
   11.3456   -3.2177   -0.6977 O   0  0  0  0  0  0  0  0  0  0  0  0
   10.3298   -3.8734   -1.4487 C   0  0  0  0  0  0  0  0  0  0  0  0
    6.5724    0.8247    2.2184 O   0  0  0  0  0  0  0  0  0  0  0  0
    6.5541    0.1790    3.4852 C   0  0  0  0  0  0  0  0  0  0  0  0
    5.6672    1.6684   -0.3410 N   0  0  0  0  0  0  0  0  0  0  0  0
    6.5945    2.7835   -0.1146 C   0  0  0  0  0  0  0  0  0  0  0  0
    4.3372    2.0528   -0.5370 C   0  0  0  0  0  0  0  0  0  0  0  0
    4.0208    3.2506   -0.4507 O   0  0  0  0  0  0  0  0  0  0  0  0
    3.2056    1.0911   -1.0387 C   0  0  1  0  0  0  0  0  0  0  0  0
    3.2558    0.8113   -2.5746 C   0  0  0  0  0  0  0  0  0  0  0  0
    1.8331    0.5803   -3.1237 C   0  0  0  0  0  0  0  0  0  0  0  0
    3.9058    1.9316   -3.3928 C   0  0  0  0  0  0  0  0  0  0  0  0
    2.9173   -0.1614   -0.3096 N   0  0  0  0  0  0  0  0  0  0  0  0
    2.2417   -0.0496    0.9131 C   0  0  0  0  0  0  0  0  0  0  0  0
    2.2205    1.0107    1.5322 O   0  0  0  0  0  0  0  0  0  0  0  0
    1.5398   -1.3603    1.4021 C   0  0  1  0  0  0  0  0  0  0  0  0
    2.5279   -2.4775    1.8439 C   0  0  0  0  0  0  0  0  0  0  0  0
    3.2799   -3.1140    0.6720 C   0  0  0  0  0  0  0  0  0  0  0  0
    3.5355   -2.0300    2.9088 C   0  0  0  0  0  0  0  0  0  0  0  0
    0.4884   -1.1481    2.4364 N   0  0  0  0  0  0  0  0  0  0  0  0
    0.7669   -0.3339    3.6062 C   0  0  0  0  0  0  0  0  0  0  0  0
   -0.7064   -1.8616    2.4811 C   0  0  0  0  0  0  0  0  0  0  0  0
   -1.5179   -1.7607    3.4108 O   0  0  0  0  0  0  0  0  0  0  0  0
   -0.8850   -2.7349    1.4579 O   0  0  0  0  0  0  0  0  0  0  0  0
   -1.9838   -3.6478    1.6149 C   0  0  0  0  0  0  0  0  0  0  0  0
   -3.3346   -3.0544    1.2811 C   0  0  0  0  0  0  0  0  0  0  0  0
   -3.6474   -2.6454   -0.0199 C   0  0  0  0  0  0  0  0  0  0  0  0
   -4.8932   -2.0621   -0.3076 C   0  0  0  0  0  0  0  0  0  0  0  0
   -5.8465   -1.8940    0.6964 C   0  0  0  0  0  0  0  0  0  0  0  0
   -5.5529   -2.3326    1.9924 C   0  0  0  0  0  0  0  0  0  0  0  0
   -4.3060   -2.8980    2.2870 C   0  0  0  0  0  0  0  0  0  0  0  0
   -7.0813   -1.2423    0.5186 N   0  0  0  0  0  0  0  0  0  0  0  0
   -7.5852   -0.6849   -0.6367 C   0  0  0  0  0  0  0  0  0  0  0  0
   -7.2085   -0.9219   -1.7860 O   0  0  0  0  0  0  0  0  0  0  0  0
   -8.8539    0.1598   -0.3759 C   0  0  1  0  0  0  0  0  0  0  0  0
   -8.9544    1.3456   -1.3536 C   0  0  0  0  0  0  0  0  0  0  0  0
   -9.8408    2.4984   -0.8428 C   0  0  0  0  0  0  0  0  0  0  0  0
  -11.3188    2.1258   -0.7442 C   0  0  0  0  0  0  0  0  0  0  0  0
  -12.1680    3.2411   -0.3586 N   0  0  0  0  0  0  0  0  0  0  0  0
  -12.3200    3.5671    0.9599 C   0  0  0  0  0  0  0  0  0  0  0  0
  -11.6707    3.0950    1.8811 O   0  0  0  0  0  0  0  0  0  0  0  0
  -13.3304    4.4440    1.1606 N   0  0  0  0  0  0  0  0  0  0  0  0
   -9.9999   -0.7584   -0.5309 N   0  0  0  0  0  0  0  0  0  0  0  0
  -10.3444   -1.5921    0.5332 C   0  0  0  0  0  0  0  0  0  0  0  0
   -9.6654   -1.6311    1.5672 O   0  0  0  0  0  0  0  0  0  0  0  0
  -11.5340   -2.5563    0.2381 C   0  0  1  0  0  0  0  0  0  0  0  0
  -12.0960   -3.1414    1.5615 C   0  0  0  0  0  0  0  0  0  0  0  0
  -12.6173   -4.5806    1.4114 C   0  0  0  0  0  0  0  0  0  0  0  0
  -13.0939   -2.2344    2.2744 C   0  0  0  0  0  0  0  0  0  0  0  0
  -12.4451   -1.8121   -0.6408 N   0  0  0  0  0  0  0  0  0  0  0  0
  -13.6820   -2.1936   -1.1088 C   0  0  0  0  0  0  0  0  0  0  0  0
  -14.3605   -3.1151   -0.6609 O   0  0  0  0  0  0  0  0  0  0  0  0
  -14.1848   -1.3377   -2.2481 C   0  0  0  0  0  0  0  0  0  0  0  0
  -15.4294   -0.5405   -1.8778 C   0  0  0  0  0  0  0  0  0  0  0  0
  -15.1298    0.5761   -0.8763 C   0  0  0  0  0  0  0  0  0  0  0  0
  -16.3051    1.5357   -0.6771 C   0  0  0  0  0  0  0  0  0  0  0  0
  -16.6435    2.3227   -1.9499 C   0  0  0  0  0  0  0  0  0  0  0  0
  -17.5064    3.4479   -1.6789 N   0  0  0  0  0  0  0  0  0  0  0  0
  -17.0755    4.6692   -1.2645 C   0  0  0  0  0  0  0  0  0  0  0  0
  -15.9340    5.0481   -1.0650 O   0  0  0  0  0  0  0  0  0  0  0  0
  -18.2666    5.5070   -1.0905 C   0  0  0  0  0  0  0  0  0  0  0  0
  -19.3348    4.7610   -1.3880 C   0  0  0  0  0  0  0  0  0  0  0  0
  -18.8579    3.4241   -1.7598 C   0  0  0  0  0  0  0  0  0  0  0  0
  -19.5940    2.5048   -2.0808 O   0  0  0  0  0  0  0  0  0  0  0  0
    6.2115   -2.6730   -3.1003 H   0  0  0  0  0  0  0  0  0  0  0  0
    7.9568   -2.3543   -3.0734 H   0  0  0  0  0  0  0  0  0  0  0  0
    7.3152   -3.7758   -2.2525 H   0  0  0  0  0  0  0  0  0  0  0  0
    6.1717   -2.4058   -0.6028 H   0  0  0  0  0  0  0  0  0  0  0  0
    7.8754   -1.9957   -0.6158 H   0  0  0  0  0  0  0  0  0  0  0  0
    5.6474   -0.4806   -2.0298 H   0  0  0  0  0  0  0  0  0  0  0  0
    8.5848    0.2709   -1.9376 H   0  0  0  0  0  0  0  0  0  0  0  0
    7.2839    1.3462   -2.4618 H   0  0  0  0  0  0  0  0  0  0  0  0
    7.5968   -0.1308   -3.3296 H   0  0  0  0  0  0  0  0  0  0  0  0
    5.2769   -0.2546    0.2456 H   0  0  0  0  0  0  0  0  0  0  0  0
    7.1554   -0.9845    1.3810 H   0  0  0  0  0  0  0  0  0  0  0  0
    8.7704    1.5640    0.7790 H   0  0  0  0  0  0  0  0  0  0  0  0
    9.0415   -0.0022    0.0209 H   0  0  0  0  0  0  0  0  0  0  0  0
   10.9210   -1.0806    4.0407 H   0  0  0  0  0  0  0  0  0  0  0  0
    9.2161   -1.5937    4.0978 H   0  0  0  0  0  0  0  0  0  0  0  0
   11.6224   -3.2250    3.8772 H   0  0  0  0  0  0  0  0  0  0  0  0
    9.9637   -3.8412    3.9005 H   0  0  0  0  0  0  0  0  0  0  0  0
   11.5255   -4.0872    1.6632 H   0  0  0  0  0  0  0  0  0  0  0  0
    9.7750   -3.7659    1.5533 H   0  0  0  0  0  0  0  0  0  0  0  0
   11.9590   -1.6251    1.6673 H   0  0  0  0  0  0  0  0  0  0  0  0
    9.9997   -1.6301   -0.6361 H   0  0  0  0  0  0  0  0  0  0  0  0
   13.0493   -1.3230   -0.3920 H   0  0  0  0  0  0  0  0  0  0  0  0
   12.4519   -2.0542   -2.6313 H   0  0  0  0  0  0  0  0  0  0  0  0
   12.9292   -0.3466   -2.6798 H   0  0  0  0  0  0  0  0  0  0  0  0
   11.2133   -0.7821   -2.7856 H   0  0  0  0  0  0  0  0  0  0  0  0
   13.2514    0.1961    1.1263 H   0  0  0  0  0  0  0  0  0  0  0  0
   14.0900    2.3613    1.2054 H   0  0  0  0  0  0  0  0  0  0  0  0
   11.3404    2.4770    2.4990 H   0  0  0  0  0  0  0  0  0  0  0  0
   12.8228    3.2627    3.0454 H   0  0  0  0  0  0  0  0  0  0  0  0
   12.6769    1.4993    3.1210 H   0  0  0  0  0  0  0  0  0  0  0  0
   12.7523    4.4045    0.8848 H   0  0  0  0  0  0  0  0  0  0  0  0
   14.4471    2.0661   -1.2117 H   0  0  0  0  0  0  0  0  0  0  0  0
   15.4358    2.6841   -3.3699 H   0  0  0  0  0  0  0  0  0  0  0  0
   14.7654    4.7915   -4.5021 H   0  0  0  0  0  0  0  0  0  0  0  0
   13.0868    6.2884   -3.4534 H   0  0  0  0  0  0  0  0  0  0  0  0
   12.0666    5.6603   -1.2944 H   0  0  0  0  0  0  0  0  0  0  0  0
   10.9197    2.8008   -0.5237 H   0  0  0  0  0  0  0  0  0  0  0  0
   10.1100   -3.3055   -2.3595 H   0  0  0  0  0  0  0  0  0  0  0  0
   10.6975   -4.8649   -1.7389 H   0  0  0  0  0  0  0  0  0  0  0  0
    9.4250   -3.9934   -0.8441 H   0  0  0  0  0  0  0  0  0  0  0  0
    7.5181    0.3079    4.0021 H   0  0  0  0  0  0  0  0  0  0  0  0
    5.7752    0.6702    4.0886 H   0  0  0  0  0  0  0  0  0  0  0  0
    6.3167   -0.8917    3.3801 H   0  0  0  0  0  0  0  0  0  0  0  0
    6.7906    2.8595    0.9495 H   0  0  0  0  0  0  0  0  0  0  0  0
    7.5251    2.5933   -0.6583 H   0  0  0  0  0  0  0  0  0  0  0  0
    6.2067    3.7438   -0.4576 H   0  0  0  0  0  0  0  0  0  0  0  0
    2.3024    1.7006   -0.8833 H   0  0  0  0  0  0  0  0  0  0  0  0
    3.8204   -0.1129   -2.7632 H   0  0  0  0  0  0  0  0  0  0  0  0
    1.3202   -0.2375   -2.6131 H   0  0  0  0  0  0  0  0  0  0  0  0
    1.8668    0.3393   -4.1941 H   0  0  0  0  0  0  0  0  0  0  0  0
    1.2184    1.4833   -3.0108 H   0  0  0  0  0  0  0  0  0  0  0  0
    4.9472    2.0923   -3.0986 H   0  0  0  0  0  0  0  0  0  0  0  0
    3.3623    2.8743   -3.2688 H   0  0  0  0  0  0  0  0  0  0  0  0
    3.9144    1.6864   -4.4643 H   0  0  0  0  0  0  0  0  0  0  0  0
    2.5865   -0.9140   -0.8914 H   0  0  0  0  0  0  0  0  0  0  0  0
    1.0098   -1.7451    0.5188 H   0  0  0  0  0  0  0  0  0  0  0  0
    1.9352   -3.2895    2.2934 H   0  0  0  0  0  0  0  0  0  0  0  0
    4.0498   -2.4513    0.2751 H   0  0  0  0  0  0  0  0  0  0  0  0
    2.5970   -3.3802   -0.1441 H   0  0  0  0  0  0  0  0  0  0  0  0
    3.7830   -4.0290    0.9985 H   0  0  0  0  0  0  0  0  0  0  0  0
    4.2671   -2.8246    3.1122 H   0  0  0  0  0  0  0  0  0  0  0  0
    3.0275   -1.8072    3.8568 H   0  0  0  0  0  0  0  0  0  0  0  0
    4.0925   -1.1396    2.5892 H   0  0  0  0  0  0  0  0  0  0  0  0
    1.7619    0.1165    3.5856 H   0  0  0  0  0  0  0  0  0  0  0  0
   -0.0031    0.4526    3.6705 H   0  0  0  0  0  0  0  0  0  0  0  0
    0.6983   -0.9686    4.5043 H   0  0  0  0  0  0  0  0  0  0  0  0
   -1.9693   -4.0644    2.6271 H   0  0  0  0  0  0  0  0  0  0  0  0
   -1.8051   -4.4919    0.9410 H   0  0  0  0  0  0  0  0  0  0  0  0
   -2.9162   -2.7638   -0.8147 H   0  0  0  0  0  0  0  0  0  0  0  0
   -5.0831   -1.7514   -1.3298 H   0  0  0  0  0  0  0  0  0  0  0  0
   -6.2665   -2.2065    2.8002 H   0  0  0  0  0  0  0  0  0  0  0  0
   -4.0804   -3.1891    3.3115 H   0  0  0  0  0  0  0  0  0  0  0  0
   -7.7126   -1.2385    1.3121 H   0  0  0  0  0  0  0  0  0  0  0  0
   -8.8299    0.5442    0.6498 H   0  0  0  0  0  0  0  0  0  0  0  0
   -7.9522    1.7573   -1.5205 H   0  0  0  0  0  0  0  0  0  0  0  0
   -9.3114    1.0119   -2.3310 H   0  0  0  0  0  0  0  0  0  0  0  0
   -9.4706    2.8403    0.1328 H   0  0  0  0  0  0  0  0  0  0  0  0
   -9.7313    3.3446   -1.5309 H   0  0  0  0  0  0  0  0  0  0  0  0
  -11.4835    1.3326   -0.0130 H   0  0  0  0  0  0  0  0  0  0  0  0
  -11.6874    1.7739   -1.7122 H   0  0  0  0  0  0  0  0  0  0  0  0
  -12.9710    3.4487   -0.9330 H   0  0  0  0  0  0  0  0  0  0  0  0
  -13.3871    4.8014    2.1060 H   0  0  0  0  0  0  0  0  0  0  0  0
  -13.5608    5.1075    0.4305 H   0  0  0  0  0  0  0  0  0  0  0  0
  -10.0546   -1.2127   -1.4360 H   0  0  0  0  0  0  0  0  0  0  0  0
  -11.1149   -3.3706   -0.3697 H   0  0  0  0  0  0  0  0  0  0  0  0
  -11.2514   -3.2489    2.2578 H   0  0  0  0  0  0  0  0  0  0  0  0
  -12.9738   -4.9528    2.3785 H   0  0  0  0  0  0  0  0  0  0  0  0
  -13.4434   -4.6680    0.7112 H   0  0  0  0  0  0  0  0  0  0  0  0
  -11.8151   -5.2412    1.0692 H   0  0  0  0  0  0  0  0  0  0  0  0
  -14.0661   -2.1926    1.7683 H   0  0  0  0  0  0  0  0  0  0  0  0
  -13.2607   -2.5938    3.2910 H   0  0  0  0  0  0  0  0  0  0  0  0
  -12.7064   -1.2117    2.3618 H   0  0  0  0  0  0  0  0  0  0  0  0
  -12.0643   -0.9469   -1.0104 H   0  0  0  0  0  0  0  0  0  0  0  0
  -13.4007   -0.6676   -2.6193 H   0  0  0  0  0  0  0  0  0  0  0  0
  -14.4177   -2.0185   -3.0758 H   0  0  0  0  0  0  0  0  0  0  0  0
  -15.8313   -0.1177   -2.8023 H   0  0  0  0  0  0  0  0  0  0  0  0
  -16.2034   -1.2012   -1.4643 H   0  0  0  0  0  0  0  0  0  0  0  0
  -14.2543    1.1505   -1.2051 H   0  0  0  0  0  0  0  0  0  0  0  0
  -14.8701    0.1352    0.0950 H   0  0  0  0  0  0  0  0  0  0  0  0
  -16.0404    2.2430    0.1211 H   0  0  0  0  0  0  0  0  0  0  0  0
  -17.1855    0.9913   -0.3398 H   0  0  0  0  0  0  0  0  0  0  0  0
  -15.7175    2.7117   -2.4086 H   0  0  0  0  0  0  0  0  0  0  0  0
  -17.1432    1.6755   -2.6837 H   0  0  0  0  0  0  0  0  0  0  0  0
  -18.2351    6.5336   -0.7744 H   0  0  0  0  0  0  0  0  0  0  0  0
  -20.3815    5.0256   -1.3745 H   0  0  0  0  0  0  0  0  0  0  0  0
  1  2  1  0
  2  3  1  0
  3  4  1  0
  3  5  1  0
  5  6  1  0
  6  7  1  0
  7  8  1  0
  8  9  2  0
  8 10  1  0
 10 11  1  0
 11 12  1  0
 12 13  1  0
 13 14  1  0
 14 15  1  0
 15 16  1  0
 16 17  1  0
 16 18  1  0
 18 19  2  0
 18 20  1  0
 20 21  1  0
 21 22  1  0
 21 23  1  0
 23 24  1  0
 24 25  2  0
 25 26  1  0
 26 27  2  0
 27 28  1  0
 28 29  2  0
 23 30  1  0
 15 31  1  0
 31 32  1  0
  6 33  1  0
 33 34  1  0
  5 35  1  0
 35 36  1  0
 35 37  1  0
 37 38  2  0
 37 39  1  0
 39 40  1  0
 40 41  1  0
 40 42  1  0
 39 43  1  0
 43 44  1  0
 44 45  2  0
 44 46  1  0
 46 47  1  0
 47 48  1  0
 47 49  1  0
 46 50  1  0
 50 51  1  0
 50 52  1  0
 52 53  2  0
 52 54  1  0
 54 55  1  0
 55 56  1  0
 56 57  1  0
 57 58  2  0
 58 59  1  0
 59 60  2  0
 60 61  1  0
 59 62  1  0
 62 63  1  0
 63 64  2  0
 63 65  1  0
 65 66  1  0
 66 67  1  0
 67 68  1  0
 68 69  1  0
 69 70  1  0
 70 71  2  0
 70 72  1  0
 65 73  1  0
 73 74  1  0
 74 75  2  0
 74 76  1  0
 76 77  1  0
 77 78  1  0
 77 79  1  0
 76 80  1  0
 80 81  1  0
 81 82  2  0
 81 83  1  0
 83 84  1  0
 84 85  1  0
 85 86  1  0
 86 87  1  0
 87 88  1  0
 88 89  1  0
 89 90  2  0
 89 91  1  0
 91 92  2  0
 92 93  1  0
 93 94  2  0
 14 10  1  0
 29 24  1  0
 61 56  2  0
 93 88  1  0
  1 95  1  0
  1 96  1  0
  1 97  1  0
  2 98  1  0
  2 99  1  0
  3100  1  6
  4101  1  0
  4102  1  0
  4103  1  0
  5104  1  1
  6105  1  1
  7106  1  0
  7107  1  0
 11108  1  0
 11109  1  0
 12110  1  0
 12111  1  0
 13112  1  0
 13113  1  0
 14114  1  1
 15115  1  6
 16116  1  1
 17117  1  0
 17118  1  0
 17119  1  0
 20120  1  0
 21121  1  1
 22122  1  0
 22123  1  0
 22124  1  0
 23125  1  1
 25126  1  0
 26127  1  0
 27128  1  0
 28129  1  0
 29130  1  0
 30131  1  0
 32132  1  0
 32133  1  0
 32134  1  0
 34135  1  0
 34136  1  0
 34137  1  0
 36138  1  0
 36139  1  0
 36140  1  0
 39141  1  6
 40142  1  0
 41143  1  0
 41144  1  0
 41145  1  0
 42146  1  0
 42147  1  0
 42148  1  0
 43149  1  0
 46150  1  6
 47151  1  0
 48152  1  0
 48153  1  0
 48154  1  0
 49155  1  0
 49156  1  0
 49157  1  0
 51158  1  0
 51159  1  0
 51160  1  0
 55161  1  0
 55162  1  0
 57163  1  0
 58164  1  0
 60165  1  0
 61166  1  0
 62167  1  0
 65168  1  1
 66169  1  0
 66170  1  0
 67171  1  0
 67172  1  0
 68173  1  0
 68174  1  0
 69175  1  0
 72176  1  0
 72177  1  0
 73178  1  0
 76179  1  6
 77180  1  0
 78181  1  0
 78182  1  0
 78183  1  0
 79184  1  0
 79185  1  0
 79186  1  0
 80187  1  0
 83188  1  0
 83189  1  0
 84190  1  0
 84191  1  0
 85192  1  0
 85193  1  0
 86194  1  0
 86195  1  0
 87196  1  0
 87197  1  0
 91198  1  0
 92199  1  0
M  END
$$$$

     RDKit          3D

199202  0  0  0  0  0  0  0  0999 V2000
   -7.9570   -2.5636   -4.1326 C   0  0  0  0  0  0  0  0  0  0  0  0
   -7.8739   -3.4765   -2.9153 C   0  0  0  0  0  0  0  0  0  0  0  0
   -6.5718   -3.3007   -2.1043 C   0  0  2  0  0  0  0  0  0  0  0  0
   -6.3951   -4.4790   -1.1368 C   0  0  0  0  0  0  0  0  0  0  0  0
   -6.3779   -1.8714   -1.4687 C   0  0  1  0  0  0  0  0  0  0  0  0
   -7.6630   -1.1950   -0.8369 C   0  0  1  0  0  0  0  0  0  0  0  0
   -8.3014   -1.9442    0.3390 C   0  0  0  0  0  0  0  0  0  0  0  0
   -9.7859   -1.6572    0.5224 C   0  0  0  0  0  0  0  0  0  0  0  0
  -10.4358   -0.9622   -0.2560 O   0  0  0  0  0  0  0  0  0  0  0  0
  -10.3690   -2.2611    1.6240 N   0  0  0  0  0  0  0  0  0  0  0  0
   -9.7783   -3.3013    2.4511 C   0  0  0  0  0  0  0  0  0  0  0  0
  -10.9816   -4.0564    2.9859 C   0  0  0  0  0  0  0  0  0  0  0  0
  -11.9812   -2.9377    3.2289 C   0  0  0  0  0  0  0  0  0  0  0  0
  -11.7509   -1.9733    2.0495 C   0  0  1  0  0  0  0  0  0  0  0  0
  -11.9844   -0.4815    2.4294 C   0  0  1  0  0  0  0  0  0  0  0  0
  -13.4527   -0.2352    2.8751 C   0  0  1  0  0  0  0  0  0  0  0  0
  -13.6577   -0.0837    4.3839 C   0  0  0  0  0  0  0  0  0  0  0  0
  -14.0009    0.9959    2.1558 C   0  0  0  0  0  0  0  0  0  0  0  0
  -14.1324    2.0870    2.6939 O   0  0  0  0  0  0  0  0  0  0  0  0
  -14.3068    0.7619    0.8264 N   0  0  0  0  0  0  0  0  0  0  0  0
  -15.0703    1.7232    0.0149 C   0  0  2  0  0  0  0  0  0  0  0  0
  -14.3230    3.0443   -0.1690 C   0  0  0  0  0  0  0  0  0  0  0  0
  -16.5205    1.9058    0.5613 C   0  0  1  0  0  0  0  0  0  0  0  0
  -17.4410    2.7468   -0.3049 C   0  0  0  0  0  0  0  0  0  0  0  0
  -17.5824    2.5220   -1.6835 C   0  0  0  0  0  0  0  0  0  0  0  0
  -18.4622    3.2941   -2.4447 C   0  0  0  0  0  0  0  0  0  0  0  0
  -19.2190    4.2951   -1.8393 C   0  0  0  0  0  0  0  0  0  0  0  0
  -19.0979    4.5229   -0.4706 C   0  0  0  0  0  0  0  0  0  0  0  0
  -18.2182    3.7531    0.2914 C   0  0  0  0  0  0  0  0  0  0  0  0
  -17.1197    0.6050    0.7194 O   0  0  0  0  0  0  0  0  0  0  0  0
  -11.0531   -0.1307    3.4732 O   0  0  0  0  0  0  0  0  0  0  0  0
  -10.5306    1.1845    3.3163 C   0  0  0  0  0  0  0  0  0  0  0  0
   -7.3765    0.1424   -0.3691 O   0  0  0  0  0  0  0  0  0  0  0  0
   -7.2193    1.0956   -1.4129 C   0  0  0  0  0  0  0  0  0  0  0  0
   -5.0926   -1.7875   -0.6932 N   0  0  0  0  0  0  0  0  0  0  0  0
   -5.1462   -1.6181    0.7517 C   0  0  0  0  0  0  0  0  0  0  0  0
   -3.9012   -1.7392   -1.4265 C   0  0  0  0  0  0  0  0  0  0  0  0
   -3.9100   -1.7762   -2.6646 O   0  0  0  0  0  0  0  0  0  0  0  0
   -2.5177   -1.7089   -0.7091 C   0  0  1  0  0  0  0  0  0  0  0  0
   -1.9289   -3.1099   -0.4017 C   0  0  0  0  0  0  0  0  0  0  0  0
   -2.0146   -4.0886   -1.5779 C   0  0  0  0  0  0  0  0  0  0  0  0
   -2.5248   -3.7560    0.8478 C   0  0  0  0  0  0  0  0  0  0  0  0
   -1.6139   -1.0139   -1.6414 N   0  0  0  0  0  0  0  0  0  0  0  0
   -1.1888    0.2843   -1.4285 C   0  0  0  0  0  0  0  0  0  0  0  0
   -1.3975    0.8771   -0.3749 O   0  0  0  0  0  0  0  0  0  0  0  0
   -0.4883    0.9280   -2.6571 C   0  0  1  0  0  0  0  0  0  0  0  0
   -1.4777    1.4723   -3.7349 C   0  0  0  0  0  0  0  0  0  0  0  0
   -1.7915    0.4240   -4.8089 C   0  0  0  0  0  0  0  0  0  0  0  0
   -2.7863    2.0328   -3.1676 C   0  0  0  0  0  0  0  0  0  0  0  0
    0.5238    1.9416   -2.2657 N   0  0  0  0  0  0  0  0  0  0  0  0
    0.0826    3.2383   -1.7775 C   0  0  0  0  0  0  0  0  0  0  0  0
    1.8726    1.7936   -2.5594 C   0  0  0  0  0  0  0  0  0  0  0  0
    2.6701    2.7236   -2.5740 O   0  0  0  0  0  0  0  0  0  0  0  0
    2.2114    0.5073   -2.8485 O   0  0  0  0  0  0  0  0  0  0  0  0
    3.5357    0.3119   -3.3625 C   0  0  0  0  0  0  0  0  0  0  0  0
    4.6385    0.2615   -2.3329 C   0  0  0  0  0  0  0  0  0  0  0  0
    4.4046    0.0639   -0.9652 C   0  0  0  0  0  0  0  0  0  0  0  0
    5.4674    0.0566   -0.0486 C   0  0  0  0  0  0  0  0  0  0  0  0
    6.7814    0.2088   -0.4880 C   0  0  0  0  0  0  0  0  0  0  0  0
    7.0239    0.3487   -1.8586 C   0  0  0  0  0  0  0  0  0  0  0  0
    5.9662    0.3788   -2.7695 C   0  0  0  0  0  0  0  0  0  0  0  0
    7.9014    0.2870    0.3561 N   0  0  0  0  0  0  0  0  0  0  0  0
    7.9512    0.3280    1.7389 C   0  0  0  0  0  0  0  0  0  0  0  0
    6.9893    0.2157    2.4973 O   0  0  0  0  0  0  0  0  0  0  0  0
    9.3322    0.8442    2.2246 C   0  0  1  0  0  0  0  0  0  0  0  0
    9.6406    0.4935    3.6865 C   0  0  0  0  0  0  0  0  0  0  0  0
   10.9718    1.0477    4.2137 C   0  0  0  0  0  0  0  0  0  0  0  0
   10.9866    2.5444    4.5277 C   0  0  0  0  0  0  0  0  0  0  0  0
   10.7337    3.4608    3.4322 N   0  0  0  0  0  0  0  0  0  0  0  0
   11.5139    3.5131    2.3143 C   0  0  0  0  0  0  0  0  0  0  0  0
   12.3051    2.6683    1.9291 O   0  0  0  0  0  0  0  0  0  0  0  0
   11.2770    4.6322    1.5849 N   0  0  0  0  0  0  0  0  0  0  0  0
   10.4262    0.5496    1.2851 N   0  0  0  0  0  0  0  0  0  0  0  0
   10.9802   -0.7130    1.1653 C   0  0  0  0  0  0  0  0  0  0  0  0
   10.4453   -1.7099    1.6455 O   0  0  0  0  0  0  0  0  0  0  0  0
   12.2018   -0.8015    0.2127 C   0  0  1  0  0  0  0  0  0  0  0  0
   11.7084   -0.6966   -1.2606 C   0  0  0  0  0  0  0  0  0  0  0  0
   12.8431   -0.7574   -2.2904 C   0  0  0  0  0  0  0  0  0  0  0  0
   10.7059   -1.8129   -1.5938 C   0  0  0  0  0  0  0  0  0  0  0  0
   13.1762    0.2495    0.5543 N   0  0  0  0  0  0  0  0  0  0  0  0
   14.5315    0.0709    0.3575 C   0  0  0  0  0  0  0  0  0  0  0  0
   15.0106   -0.9462   -0.1282 O   0  0  0  0  0  0  0  0  0  0  0  0
   15.3664    1.2597    0.8047 C   0  0  0  0  0  0  0  0  0  0  0  0
   16.6589    1.4105   -0.0000 C   0  0  0  0  0  0  0  0  0  0  0  0
   17.7895    0.4896    0.4730 C   0  0  0  0  0  0  0  0  0  0  0  0
   19.0362    0.6723   -0.4000 C   0  0  0  0  0  0  0  0  0  0  0  0
   20.1718   -0.2891   -0.0366 C   0  0  0  0  0  0  0  0  0  0  0  0
   20.7028   -0.0645    1.2919 N   0  0  0  0  0  0  0  0  0  0  0  0
   20.5153   -0.8915    2.3515 C   0  0  0  0  0  0  0  0  0  0  0  0
   19.8945   -1.9358    2.4160 O   0  0  0  0  0  0  0  0  0  0  0  0
   21.2314   -0.3034    3.4897 C   0  0  0  0  0  0  0  0  0  0  0  0
   21.8166    0.8179    3.0651 C   0  0  0  0  0  0  0  0  0  0  0  0
   21.4901    0.9809    1.6446 C   0  0  0  0  0  0  0  0  0  0  0  0
   21.8895    1.9083    0.9641 O   0  0  0  0  0  0  0  0  0  0  0  0
   -8.8754   -2.7683   -4.6922 H   0  0  0  0  0  0  0  0  0  0  0  0
   -7.9626   -1.5077   -3.8551 H   0  0  0  0  0  0  0  0  0  0  0  0
   -7.1096   -2.7369   -4.8053 H   0  0  0  0  0  0  0  0  0  0  0  0
   -7.9334   -4.5110   -3.2755 H   0  0  0  0  0  0  0  0  0  0  0  0
   -8.7525   -3.3308   -2.2779 H   0  0  0  0  0  0  0  0  0  0  0  0
   -5.7525   -3.4278   -2.8272 H   0  0  0  0  0  0  0  0  0  0  0  0
   -7.2181   -4.5909   -0.4324 H   0  0  0  0  0  0  0  0  0  0  0  0
   -6.3356   -5.4179   -1.7011 H   0  0  0  0  0  0  0  0  0  0  0  0
   -5.4654   -4.3973   -0.5714 H   0  0  0  0  0  0  0  0  0  0  0  0
   -6.1819   -1.2341   -2.3424 H   0  0  0  0  0  0  0  0  0  0  0  0
   -8.4141   -1.1056   -1.6292 H   0  0  0  0  0  0  0  0  0  0  0  0
   -7.8146   -1.6769    1.2819 H   0  0  0  0  0  0  0  0  0  0  0  0
   -8.2305   -3.0128    0.1748 H   0  0  0  0  0  0  0  0  0  0  0  0
   -9.2168   -2.8105    3.2538 H   0  0  0  0  0  0  0  0  0  0  0  0
   -9.1067   -3.9520    1.8872 H   0  0  0  0  0  0  0  0  0  0  0  0
  -10.7537   -4.6320    3.8863 H   0  0  0  0  0  0  0  0  0  0  0  0
  -11.3686   -4.7423    2.2232 H   0  0  0  0  0  0  0  0  0  0  0  0
  -11.7444   -2.4645    4.1898 H   0  0  0  0  0  0  0  0  0  0  0  0
  -13.0131   -3.3006    3.2747 H   0  0  0  0  0  0  0  0  0  0  0  0
  -12.4025   -2.2434    1.2089 H   0  0  0  0  0  0  0  0  0  0  0  0
  -11.7582    0.1197    1.5395 H   0  0  0  0  0  0  0  0  0  0  0  0
  -14.0808   -1.0736    2.5453 H   0  0  0  0  0  0  0  0  0  0  0  0
  -14.7137    0.1098    4.6076 H   0  0  0  0  0  0  0  0  0  0  0  0
  -13.3683   -0.9918    4.9205 H   0  0  0  0  0  0  0  0  0  0  0  0
  -13.0883    0.7556    4.7965 H   0  0  0  0  0  0  0  0  0  0  0  0
  -14.4347   -0.2053    0.5617 H   0  0  0  0  0  0  0  0  0  0  0  0
  -15.1225    1.2325   -0.9641 H   0  0  0  0  0  0  0  0  0  0  0  0
  -14.2729    3.6254    0.7581 H   0  0  0  0  0  0  0  0  0  0  0  0
  -13.2951    2.8614   -0.5034 H   0  0  0  0  0  0  0  0  0  0  0  0
  -14.8102    3.6695   -0.9240 H   0  0  0  0  0  0  0  0  0  0  0  0
  -16.4686    2.3393    1.5673 H   0  0  0  0  0  0  0  0  0  0  0  0
  -17.0164    1.7390   -2.1829 H   0  0  0  0  0  0  0  0  0  0  0  0
  -18.5613    3.1127   -3.5119 H   0  0  0  0  0  0  0  0  0  0  0  0
  -19.9048    4.8948   -2.4321 H   0  0  0  0  0  0  0  0  0  0  0  0
  -19.6922    5.2993    0.0057 H   0  0  0  0  0  0  0  0  0  0  0  0
  -18.1477    3.9414    1.3616 H   0  0  0  0  0  0  0  0  0  0  0  0
  -17.6733    0.4350   -0.0658 H   0  0  0  0  0  0  0  0  0  0  0  0
   -9.8961    1.4020    4.1798 H   0  0  0  0  0  0  0  0  0  0  0  0
   -9.9161    1.2376    2.4129 H   0  0  0  0  0  0  0  0  0  0  0  0
  -11.3352    1.9233    3.2746 H   0  0  0  0  0  0  0  0  0  0  0  0
   -8.0714    1.0728   -2.0994 H   0  0  0  0  0  0  0  0  0  0  0  0
   -7.1687    2.0891   -0.9588 H   0  0  0  0  0  0  0  0  0  0  0  0
   -6.2876    0.9253   -1.9592 H   0  0  0  0  0  0  0  0  0  0  0  0
   -5.5579   -0.6392    0.9948 H   0  0  0  0  0  0  0  0  0  0  0  0
   -5.7566   -2.4126    1.1798 H   0  0  0  0  0  0  0  0  0  0  0  0
   -4.1729   -1.6690    1.2298 H   0  0  0  0  0  0  0  0  0  0  0  0
   -2.5685   -1.1064    0.1986 H   0  0  0  0  0  0  0  0  0  0  0  0
   -0.8601   -2.9683   -0.1891 H   0  0  0  0  0  0  0  0  0  0  0  0
   -1.4821   -5.0184   -1.3423 H   0  0  0  0  0  0  0  0  0  0  0  0
   -3.0505   -4.3570   -1.8089 H   0  0  0  0  0  0  0  0  0  0  0  0
   -1.5582   -3.6698   -2.4815 H   0  0  0  0  0  0  0  0  0  0  0  0
   -1.9997   -4.6877    1.0874 H   0  0  0  0  0  0  0  0  0  0  0  0
   -3.5805   -4.0042    0.7157 H   0  0  0  0  0  0  0  0  0  0  0  0
   -2.4251   -3.0959    1.7164 H   0  0  0  0  0  0  0  0  0  0  0  0
   -1.6780   -1.3380   -2.6000 H   0  0  0  0  0  0  0  0  0  0  0  0
    0.0602    0.1040   -3.1287 H   0  0  0  0  0  0  0  0  0  0  0  0
   -0.9766    2.2914   -4.2679 H   0  0  0  0  0  0  0  0  0  0  0  0
   -2.3608   -0.4162   -4.4070 H   0  0  0  0  0  0  0  0  0  0  0  0
   -2.3866    0.8691   -5.6133 H   0  0  0  0  0  0  0  0  0  0  0  0
   -0.8721    0.0361   -5.2582 H   0  0  0  0  0  0  0  0  0  0  0  0
   -2.6031    2.8296   -2.4434 H   0  0  0  0  0  0  0  0  0  0  0  0
   -3.3868    1.2570   -2.6812 H   0  0  0  0  0  0  0  0  0  0  0  0
   -3.3962    2.4593   -3.9716 H   0  0  0  0  0  0  0  0  0  0  0  0
    0.9030    3.7723   -1.2898 H   0  0  0  0  0  0  0  0  0  0  0  0
   -0.7222    3.1238   -1.0509 H   0  0  0  0  0  0  0  0  0  0  0  0
   -0.2636    3.8384   -2.6226 H   0  0  0  0  0  0  0  0  0  0  0  0
    3.5216   -0.6508   -3.8842 H   0  0  0  0  0  0  0  0  0  0  0  0
    3.7507    1.0760   -4.1191 H   0  0  0  0  0  0  0  0  0  0  0  0
    3.3901   -0.0601   -0.5885 H   0  0  0  0  0  0  0  0  0  0  0  0
    5.2357   -0.0765    1.0050 H   0  0  0  0  0  0  0  0  0  0  0  0
    8.0358    0.4653   -2.2373 H   0  0  0  0  0  0  0  0  0  0  0  0
    6.1838    0.5189   -3.8281 H   0  0  0  0  0  0  0  0  0  0  0  0
    8.8046    0.3861   -0.0930 H   0  0  0  0  0  0  0  0  0  0  0  0
    9.2059    1.9305    2.1562 H   0  0  0  0  0  0  0  0  0  0  0  0
    9.6605   -0.5975    3.7986 H   0  0  0  0  0  0  0  0  0  0  0  0
    8.8248    0.8435    4.3323 H   0  0  0  0  0  0  0  0  0  0  0  0
   11.7921    0.7853    3.5383 H   0  0  0  0  0  0  0  0  0  0  0  0
   11.1915    0.5253    5.1556 H   0  0  0  0  0  0  0  0  0  0  0  0
   11.9655    2.8105    4.9403 H   0  0  0  0  0  0  0  0  0  0  0  0
   10.2389    2.7622    5.2969 H   0  0  0  0  0  0  0  0  0  0  0  0
   10.4072    4.3757    3.7173 H   0  0  0  0  0  0  0  0  0  0  0  0
   11.7848    4.6634    0.7066 H   0  0  0  0  0  0  0  0  0  0  0  0
   10.3146    4.9338    1.5030 H   0  0  0  0  0  0  0  0  0  0  0  0
   11.0490    1.3255    1.0875 H   0  0  0  0  0  0  0  0  0  0  0  0
   12.6841   -1.7733    0.3833 H   0  0  0  0  0  0  0  0  0  0  0  0
   11.1961    0.2653   -1.4011 H   0  0  0  0  0  0  0  0  0  0  0  0
   13.4283   -1.6766   -2.1809 H   0  0  0  0  0  0  0  0  0  0  0  0
   12.4421   -0.7391   -3.3110 H   0  0  0  0  0  0  0  0  0  0  0  0
   13.5147    0.1016   -2.2006 H   0  0  0  0  0  0  0  0  0  0  0  0
   10.4076   -1.7707   -2.6477 H   0  0  0  0  0  0  0  0  0  0  0  0
    9.7910   -1.7254   -1.0008 H   0  0  0  0  0  0  0  0  0  0  0  0
   11.1410   -2.8013   -1.4052 H   0  0  0  0  0  0  0  0  0  0  0  0
   12.9055    1.0296    1.1501 H   0  0  0  0  0  0  0  0  0  0  0  0
   14.7729    2.1708    0.6590 H   0  0  0  0  0  0  0  0  0  0  0  0
   15.5746    1.1609    1.8761 H   0  0  0  0  0  0  0  0  0  0  0  0
   16.4567    1.2340   -1.0632 H   0  0  0  0  0  0  0  0  0  0  0  0
   17.0011    2.4495    0.0893 H   0  0  0  0  0  0  0  0  0  0  0  0
   18.0291    0.7192    1.5184 H   0  0  0  0  0  0  0  0  0  0  0  0
   17.4718   -0.5587    0.4334 H   0  0  0  0  0  0  0  0  0  0  0  0
   19.3852    1.7091   -0.3280 H   0  0  0  0  0  0  0  0  0  0  0  0
   18.7691    0.4998   -1.4496 H   0  0  0  0  0  0  0  0  0  0  0  0
   20.9946   -0.1430   -0.7479 H   0  0  0  0  0  0  0  0  0  0  0  0
   19.8307   -1.3277   -0.1264 H   0  0  0  0  0  0  0  0  0  0  0  0
   21.2493   -0.7456    4.4703 H   0  0  0  0  0  0  0  0  0  0  0  0
   22.4262    1.5089    3.6184 H   0  0  0  0  0  0  0  0  0  0  0  0
  1  2  1  0
  2  3  1  0
  3  4  1  0
  3  5  1  0
  5  6  1  0
  6  7  1  0
  7  8  1  0
  8  9  2  0
  8 10  1  0
 10 11  1  0
 11 12  1  0
 12 13  1  0
 13 14  1  0
 14 15  1  0
 15 16  1  0
 16 17  1  0
 16 18  1  0
 18 19  2  0
 18 20  1  0
 20 21  1  0
 21 22  1  0
 21 23  1  0
 23 24  1  0
 24 25  2  0
 25 26  1  0
 26 27  2  0
 27 28  1  0
 28 29  2  0
 23 30  1  0
 15 31  1  0
 31 32  1  0
  6 33  1  0
 33 34  1  0
  5 35  1  0
 35 36  1  0
 35 37  1  0
 37 38  2  0
 37 39  1  0
 39 40  1  0
 40 41  1  0
 40 42  1  0
 39 43  1  0
 43 44  1  0
 44 45  2  0
 44 46  1  0
 46 47  1  0
 47 48  1  0
 47 49  1  0
 46 50  1  0
 50 51  1  0
 50 52  1  0
 52 53  2  0
 52 54  1  0
 54 55  1  0
 55 56  1  0
 56 57  1  0
 57 58  2  0
 58 59  1  0
 59 60  2  0
 60 61  1  0
 59 62  1  0
 62 63  1  0
 63 64  2  0
 63 65  1  0
 65 66  1  0
 66 67  1  0
 67 68  1  0
 68 69  1  0
 69 70  1  0
 70 71  2  0
 70 72  1  0
 65 73  1  0
 73 74  1  0
 74 75  2  0
 74 76  1  0
 76 77  1  0
 77 78  1  0
 77 79  1  0
 76 80  1  0
 80 81  1  0
 81 82  2  0
 81 83  1  0
 83 84  1  0
 84 85  1  0
 85 86  1  0
 86 87  1  0
 87 88  1  0
 88 89  1  0
 89 90  2  0
 89 91  1  0
 91 92  2  0
 92 93  1  0
 93 94  2  0
 14 10  1  0
 29 24  1  0
 61 56  2  0
 93 88  1  0
  1 95  1  0
  1 96  1  0
  1 97  1  0
  2 98  1  0
  2 99  1  0
  3100  1  6
  4101  1  0
  4102  1  0
  4103  1  0
  5104  1  6
  6105  1  6
  7106  1  0
  7107  1  0
 11108  1  0
 11109  1  0
 12110  1  0
 12111  1  0
 13112  1  0
 13113  1  0
 14114  1  6
 15115  1  6
 16116  1  6
 17117  1  0
 17118  1  0
 17119  1  0
 20120  1  0
 21121  1  6
 22122  1  0
 22123  1  0
 22124  1  0
 23125  1  1
 25126  1  0
 26127  1  0
 27128  1  0
 28129  1  0
 29130  1  0
 30131  1  0
 32132  1  0
 32133  1  0
 32134  1  0
 34135  1  0
 34136  1  0
 34137  1  0
 36138  1  0
 36139  1  0
 36140  1  0
 39141  1  1
 40142  1  0
 41143  1  0
 41144  1  0
 41145  1  0
 42146  1  0
 42147  1  0
 42148  1  0
 43149  1  0
 46150  1  6
 47151  1  0
 48152  1  0
 48153  1  0
 48154  1  0
 49155  1  0
 49156  1  0
 49157  1  0
 51158  1  0
 51159  1  0
 51160  1  0
 55161  1  0
 55162  1  0
 57163  1  0
 58164  1  0
 60165  1  0
 61166  1  0
 62167  1  0
 65168  1  1
 66169  1  0
 66170  1  0
 67171  1  0
 67172  1  0
 68173  1  0
 68174  1  0
 69175  1  0
 72176  1  0
 72177  1  0
 73178  1  0
 76179  1  6
 77180  1  0
 78181  1  0
 78182  1  0
 78183  1  0
 79184  1  0
 79185  1  0
 79186  1  0
 80187  1  0
 83188  1  0
 83189  1  0
 84190  1  0
 84191  1  0
 85192  1  0
 85193  1  0
 86194  1  0
 86195  1  0
 87196  1  0
 87197  1  0
 91198  1  0
 92199  1  0
M  END
$$$$

     RDKit          3D

199202  0  0  0  0  0  0  0  0999 V2000
   -3.9402   -2.1065   -5.0038 C   0  0  0  0  0  0  0  0  0  0  0  0
   -4.1398   -1.9421   -3.5013 C   0  0  0  0  0  0  0  0  0  0  0  0
   -4.6673   -0.5341   -3.1093 C   0  0  2  0  0  0  0  0  0  0  0  0
   -3.6116    0.5154   -3.5320 C   0  0  0  0  0  0  0  0  0  0  0  0
   -5.0382   -0.3929   -1.5835 C   0  0  1  0  0  0  0  0  0  0  0  0
   -5.9741    0.8649   -1.2814 C   0  0  1  0  0  0  0  0  0  0  0  0
   -5.8408    1.2814    0.2008 C   0  0  0  0  0  0  0  0  0  0  0  0
   -6.1322    2.7241    0.5813 C   0  0  0  0  0  0  0  0  0  0  0  0
   -5.6751    3.6649   -0.0665 O   0  0  0  0  0  0  0  0  0  0  0  0
   -6.7791    2.9677    1.7706 N   0  0  0  0  0  0  0  0  0  0  0  0
   -6.5482    4.2538    2.4201 C   0  0  0  0  0  0  0  0  0  0  0  0
   -7.2792    4.1755    3.7483 C   0  0  0  0  0  0  0  0  0  0  0  0
   -7.3701    2.6821    4.0139 C   0  0  0  0  0  0  0  0  0  0  0  0
   -7.6178    2.0906    2.6140 C   0  0  1  0  0  0  0  0  0  0  0  0
   -9.1351    2.1486    2.1913 C   0  0  1  0  0  0  0  0  0  0  0  0
   -9.4137    1.2734    0.9503 C   0  0  1  0  0  0  0  0  0  0  0  0
   -9.6331   -0.2098    1.2472 C   0  0  0  0  0  0  0  0  0  0  0  0
  -10.5583    1.8434    0.1292 C   0  0  0  0  0  0  0  0  0  0  0  0
  -10.3508    2.3808   -0.9542 O   0  0  0  0  0  0  0  0  0  0  0  0
  -11.8099    1.7200    0.6719 N   0  0  0  0  0  0  0  0  0  0  0  0
  -13.0193    2.1980   -0.0008 C   0  0  2  0  0  0  0  0  0  0  0  0
  -13.3604    3.6020    0.5048 C   0  0  0  0  0  0  0  0  0  0  0  0
  -14.2049    1.2074    0.2043 C   0  0  1  0  0  0  0  0  0  0  0  0
  -13.9649   -0.2025   -0.3396 C   0  0  0  0  0  0  0  0  0  0  0  0
  -13.3186   -0.4201   -1.5731 C   0  0  0  0  0  0  0  0  0  0  0  0
  -13.1331   -1.7135   -2.0710 C   0  0  0  0  0  0  0  0  0  0  0  0
  -13.6022   -2.8116   -1.3607 C   0  0  0  0  0  0  0  0  0  0  0  0
  -14.2575   -2.6178   -0.1483 C   0  0  0  0  0  0  0  0  0  0  0  0
  -14.4453   -1.3274    0.3510 C   0  0  0  0  0  0  0  0  0  0  0  0
  -14.5067    1.1345    1.6051 O   0  0  0  0  0  0  0  0  0  0  0  0
   -9.9743    1.6843    3.2710 O   0  0  0  0  0  0  0  0  0  0  0  0
  -10.8035    2.7028    3.8284 C   0  0  0  0  0  0  0  0  0  0  0  0
   -5.6503    1.9303   -2.1707 O   0  0  0  0  0  0  0  0  0  0  0  0
   -6.7906    2.5441   -2.7626 C   0  0  0  0  0  0  0  0  0  0  0  0
   -5.5991   -1.6605   -1.0184 N   0  0  0  0  0  0  0  0  0  0  0  0
   -6.9298   -2.0403   -1.5065 C   0  0  0  0  0  0  0  0  0  0  0  0
   -5.4287   -1.9150    0.3505 C   0  0  0  0  0  0  0  0  0  0  0  0
   -6.3940   -1.8486    1.1141 O   0  0  0  0  0  0  0  0  0  0  0  0
   -4.0647   -2.4885    0.8538 C   0  0  1  0  0  0  0  0  0  0  0  0
   -3.9399   -4.0234    0.6432 C   0  0  0  0  0  0  0  0  0  0  0  0
   -5.0555   -4.7917    1.3564 C   0  0  0  0  0  0  0  0  0  0  0  0
   -3.8552   -4.4461   -0.8191 C   0  0  0  0  0  0  0  0  0  0  0  0
   -2.8482   -1.7900    0.4284 N   0  0  0  0  0  0  0  0  0  0  0  0
   -1.7374   -1.7639    1.2498 C   0  0  0  0  0  0  0  0  0  0  0  0
   -1.7406   -2.2987    2.3543 O   0  0  0  0  0  0  0  0  0  0  0  0
   -0.5900   -0.8495    0.7633 C   0  0  1  0  0  0  0  0  0  0  0  0
    0.7814   -1.0866    1.4703 C   0  0  0  0  0  0  0  0  0  0  0  0
    0.8193   -0.4224    2.8525 C   0  0  0  0  0  0  0  0  0  0  0  0
    1.1848   -2.5582    1.6192 C   0  0  0  0  0  0  0  0  0  0  0  0
   -0.4501   -0.7531   -0.7132 N   0  0  0  0  0  0  0  0  0  0  0  0
   -0.0690   -1.9496   -1.4539 C   0  0  0  0  0  0  0  0  0  0  0  0
   -0.0313    0.4977   -1.1808 C   0  0  0  0  0  0  0  0  0  0  0  0
   -0.2354    1.5402   -0.5724 O   0  0  0  0  0  0  0  0  0  0  0  0
    0.7170    0.4159   -2.3122 O   0  0  0  0  0  0  0  0  0  0  0  0
    1.5540    1.5578   -2.5577 C   0  0  0  0  0  0  0  0  0  0  0  0
    2.8083    1.4446   -1.7057 C   0  0  0  0  0  0  0  0  0  0  0  0
    2.8585    2.0280   -0.4322 C   0  0  0  0  0  0  0  0  0  0  0  0
    3.9433    1.7929    0.4175 C   0  0  0  0  0  0  0  0  0  0  0  0
    5.0027    0.9920    0.0081 C   0  0  0  0  0  0  0  0  0  0  0  0
    4.9897    0.4698   -1.2889 C   0  0  0  0  0  0  0  0  0  0  0  0
    3.8924    0.6743   -2.1347 C   0  0  0  0  0  0  0  0  0  0  0  0
    6.0692    0.6103    0.8465 N   0  0  0  0  0  0  0  0  0  0  0  0
    6.0843    0.6426    2.2365 C   0  0  0  0  0  0  0  0  0  0  0  0
    5.3114    1.2805    2.9454 O   0  0  0  0  0  0  0  0  0  0  0  0
    7.1127   -0.3315    2.8654 C   0  0  1  0  0  0  0  0  0  0  0  0
    6.6585   -1.8017    2.6850 C   0  0  0  0  0  0  0  0  0  0  0  0
    6.9374   -2.3854    1.2865 C   0  0  0  0  0  0  0  0  0  0  0  0
    7.7522   -3.6766    1.3195 C   0  0  0  0  0  0  0  0  0  0  0  0
    8.1290   -4.0916   -0.0219 N   0  0  0  0  0  0  0  0  0  0  0  0
    9.0821   -3.4212   -0.7353 C   0  0  0  0  0  0  0  0  0  0  0  0
    9.7621   -2.4796   -0.3411 O   0  0  0  0  0  0  0  0  0  0  0  0
    9.2110   -3.9194   -1.9907 N   0  0  0  0  0  0  0  0  0  0  0  0
    8.4614   -0.0998    2.3622 N   0  0  0  0  0  0  0  0  0  0  0  0
    9.5626   -0.7357    2.9062 C   0  0  0  0  0  0  0  0  0  0  0  0
    9.4662   -1.5425    3.8275 O   0  0  0  0  0  0  0  0  0  0  0  0
   10.9095   -0.2690    2.3183 C   0  0  1  0  0  0  0  0  0  0  0  0
   12.0985   -1.1546    2.7539 C   0  0  0  0  0  0  0  0  0  0  0  0
   12.1104   -2.5316    2.0775 C   0  0  0  0  0  0  0  0  0  0  0  0
   13.4359   -0.4473    2.5043 C   0  0  0  0  0  0  0  0  0  0  0  0
   10.7974   -0.1550    0.8677 N   0  0  0  0  0  0  0  0  0  0  0  0
   10.8939    1.0442    0.2134 C   0  0  0  0  0  0  0  0  0  0  0  0
   11.0273    2.1187    0.8043 O   0  0  0  0  0  0  0  0  0  0  0  0
   10.8643    0.9422   -1.2956 C   0  0  0  0  0  0  0  0  0  0  0  0
   12.2255    0.5175   -1.8509 C   0  0  0  0  0  0  0  0  0  0  0  0
   13.1090    1.6755   -2.3331 C   0  0  0  0  0  0  0  0  0  0  0  0
   13.4810    2.6911   -1.2480 C   0  0  0  0  0  0  0  0  0  0  0  0
   14.3811    3.8188   -1.7684 C   0  0  0  0  0  0  0  0  0  0  0  0
   15.7611    3.4168   -1.9602 N   0  0  0  0  0  0  0  0  0  0  0  0
   16.2901    2.9364   -3.1096 C   0  0  0  0  0  0  0  0  0  0  0  0
   15.7536    2.7526   -4.1855 O   0  0  0  0  0  0  0  0  0  0  0  0
   17.7054    2.6503   -2.8484 C   0  0  0  0  0  0  0  0  0  0  0  0
   17.9566    2.9707   -1.5786 C   0  0  0  0  0  0  0  0  0  0  0  0
   16.7079    3.4666   -0.9871 C   0  0  0  0  0  0  0  0  0  0  0  0
   16.6102    3.8391    0.1682 O   0  0  0  0  0  0  0  0  0  0  0  0
   -3.4494   -3.0577   -5.2126 H   0  0  0  0  0  0  0  0  0  0  0  0
   -4.9037   -2.0931   -5.5211 H   0  0  0  0  0  0  0  0  0  0  0  0
   -3.3166   -1.3200   -5.4282 H   0  0  0  0  0  0  0  0  0  0  0  0
   -3.1906   -2.1322   -2.9832 H   0  0  0  0  0  0  0  0  0  0  0  0
   -4.8326   -2.7278   -3.1899 H   0  0  0  0  0  0  0  0  0  0  0  0
   -5.5884   -0.3545   -3.6849 H   0  0  0  0  0  0  0  0  0  0  0  0
   -2.6148    0.0753   -3.6336 H   0  0  0  0  0  0  0  0  0  0  0  0
   -3.5056    1.3265   -2.8117 H   0  0  0  0  0  0  0  0  0  0  0  0
   -3.8877    0.9582   -4.4940 H   0  0  0  0  0  0  0  0  0  0  0  0
   -4.0969   -0.1989   -1.0653 H   0  0  0  0  0  0  0  0  0  0  0  0
   -7.0141    0.5758   -1.4543 H   0  0  0  0  0  0  0  0  0  0  0  0
   -4.8093    1.1217    0.5378 H   0  0  0  0  0  0  0  0  0  0  0  0
   -6.4511    0.6008    0.7953 H   0  0  0  0  0  0  0  0  0  0  0  0
   -6.9013    5.0758    1.7922 H   0  0  0  0  0  0  0  0  0  0  0  0
   -5.4719    4.3602    2.5731 H   0  0  0  0  0  0  0  0  0  0  0  0
   -8.2777    4.6166    3.6499 H   0  0  0  0  0  0  0  0  0  0  0  0
   -6.7532    4.7128    4.5421 H   0  0  0  0  0  0  0  0  0  0  0  0
   -8.1141    2.4198    4.7694 H   0  0  0  0  0  0  0  0  0  0  0  0
   -6.3989    2.3201    4.3848 H   0  0  0  0  0  0  0  0  0  0  0  0
   -7.2665    1.0590    2.6062 H   0  0  0  0  0  0  0  0  0  0  0  0
   -9.3909    3.1918    1.9482 H   0  0  0  0  0  0  0  0  0  0  0  0
   -8.5543    1.3354    0.2758 H   0  0  0  0  0  0  0  0  0  0  0  0
   -8.7584   -0.6465    1.7374 H   0  0  0  0  0  0  0  0  0  0  0  0
  -10.4985   -0.3900    1.8984 H   0  0  0  0  0  0  0  0  0  0  0  0
   -9.8091   -0.7650    0.3183 H   0  0  0  0  0  0  0  0  0  0  0  0
  -11.9341    1.2318    1.5551 H   0  0  0  0  0  0  0  0  0  0  0  0
  -12.8050    2.2921   -1.0725 H   0  0  0  0  0  0  0  0  0  0  0  0
  -12.5401    4.2949    0.2931 H   0  0  0  0  0  0  0  0  0  0  0  0
  -13.5185    3.6159    1.5879 H   0  0  0  0  0  0  0  0  0  0  0  0
  -14.2625    3.9797    0.0161 H   0  0  0  0  0  0  0  0  0  0  0  0
  -15.0982    1.5928   -0.3004 H   0  0  0  0  0  0  0  0  0  0  0  0
  -12.9443    0.4136   -2.1663 H   0  0  0  0  0  0  0  0  0  0  0  0
  -12.6283   -1.8572   -3.0232 H   0  0  0  0  0  0  0  0  0  0  0  0
  -13.4547   -3.8135   -1.7509 H   0  0  0  0  0  0  0  0  0  0  0  0
  -14.6335   -3.4710    0.4075 H   0  0  0  0  0  0  0  0  0  0  0  0
  -14.9719   -1.2093    1.2949 H   0  0  0  0  0  0  0  0  0  0  0  0
  -15.0192    1.9276    1.8293 H   0  0  0  0  0  0  0  0  0  0  0  0
  -11.3762    2.2602    4.6503 H   0  0  0  0  0  0  0  0  0  0  0  0
  -10.2049    3.5213    4.2262 H   0  0  0  0  0  0  0  0  0  0  0  0
  -11.5044    3.0798    3.0762 H   0  0  0  0  0  0  0  0  0  0  0  0
   -6.4473    3.3954   -3.3605 H   0  0  0  0  0  0  0  0  0  0  0  0
   -7.2946    1.8335   -3.4270 H   0  0  0  0  0  0  0  0  0  0  0  0
   -7.4863    2.9081   -2.0043 H   0  0  0  0  0  0  0  0  0  0  0  0
   -6.9640   -1.9911   -2.5973 H   0  0  0  0  0  0  0  0  0  0  0  0
   -7.1320   -3.0748   -1.1955 H   0  0  0  0  0  0  0  0  0  0  0  0
   -7.6957   -1.4041   -1.0655 H   0  0  0  0  0  0  0  0  0  0  0  0
   -4.1165   -2.3217    1.9396 H   0  0  0  0  0  0  0  0  0  0  0  0
   -2.9963   -4.3352    1.1143 H   0  0  0  0  0  0  0  0  0  0  0  0
   -5.0813   -4.5368    2.4250 H   0  0  0  0  0  0  0  0  0  0  0  0
   -4.8844   -5.8666    1.2754 H   0  0  0  0  0  0  0  0  0  0  0  0
   -6.0392   -4.5767    0.9253 H   0  0  0  0  0  0  0  0  0  0  0  0
   -4.7964   -4.2780   -1.3420 H   0  0  0  0  0  0  0  0  0  0  0  0
   -3.6351   -5.5143   -0.8813 H   0  0  0  0  0  0  0  0  0  0  0  0
   -3.0544   -3.9147   -1.3413 H   0  0  0  0  0  0  0  0  0  0  0  0
   -2.7219   -1.5082   -0.5373 H   0  0  0  0  0  0  0  0  0  0  0  0
   -0.9421    0.1400    1.0928 H   0  0  0  0  0  0  0  0  0  0  0  0
    1.5642   -0.5991    0.8751 H   0  0  0  0  0  0  0  0  0  0  0  0
    1.7949   -0.5752    3.3274 H   0  0  0  0  0  0  0  0  0  0  0  0
    0.6559    0.6644    2.7753 H   0  0  0  0  0  0  0  0  0  0  0  0
    0.0574   -0.8390    3.5252 H   0  0  0  0  0  0  0  0  0  0  0  0
    2.2560   -2.6290    1.8541 H   0  0  0  0  0  0  0  0  0  0  0  0
    0.6479   -3.0574    2.4323 H   0  0  0  0  0  0  0  0  0  0  0  0
    1.0129   -3.1330    0.7073 H   0  0  0  0  0  0  0  0  0  0  0  0
   -0.2811   -1.8206   -2.5153 H   0  0  0  0  0  0  0  0  0  0  0  0
    1.0028   -2.1213   -1.3336 H   0  0  0  0  0  0  0  0  0  0  0  0
   -0.6299   -2.8180   -1.0914 H   0  0  0  0  0  0  0  0  0  0  0  0
    1.8287    1.5426   -3.6142 H   0  0  0  0  0  0  0  0  0  0  0  0
    1.0255    2.5032   -2.3934 H   0  0  0  0  0  0  0  0  0  0  0  0
    2.0301    2.6363   -0.0726 H   0  0  0  0  0  0  0  0  0  0  0  0
    3.9186    2.2416    1.4079 H   0  0  0  0  0  0  0  0  0  0  0  0
    5.8034   -0.1650   -1.6369 H   0  0  0  0  0  0  0  0  0  0  0  0
    3.8802    0.2005   -3.1171 H   0  0  0  0  0  0  0  0  0  0  0  0
    6.8021    0.0790    0.3958 H   0  0  0  0  0  0  0  0  0  0  0  0
    7.1448   -0.1039    3.9374 H   0  0  0  0  0  0  0  0  0  0  0  0
    7.1609   -2.4237    3.4390 H   0  0  0  0  0  0  0  0  0  0  0  0
    5.5804   -1.8810    2.8953 H   0  0  0  0  0  0  0  0  0  0  0  0
    5.9860   -2.5592    0.7679 H   0  0  0  0  0  0  0  0  0  0  0  0
    7.4949   -1.6768    0.6622 H   0  0  0  0  0  0  0  0  0  0  0  0
    8.6711   -3.5459    1.8959 H   0  0  0  0  0  0  0  0  0  0  0  0
    7.1643   -4.4890    1.7660 H   0  0  0  0  0  0  0  0  0  0  0  0
    7.3936   -4.5056   -0.5837 H   0  0  0  0  0  0  0  0  0  0  0  0
    9.1132   -4.9195   -2.0758 H   0  0  0  0  0  0  0  0  0  0  0  0
   10.0108   -3.5464   -2.4928 H   0  0  0  0  0  0  0  0  0  0  0  0
    8.6573    0.7277    1.7951 H   0  0  0  0  0  0  0  0  0  0  0  0
   11.0619    0.7305    2.7481 H   0  0  0  0  0  0  0  0  0  0  0  0
   12.0241   -1.3303    3.8363 H   0  0  0  0  0  0  0  0  0  0  0  0
   11.1626   -3.0615    2.2334 H   0  0  0  0  0  0  0  0  0  0  0  0
   12.2855   -2.4552    0.9977 H   0  0  0  0  0  0  0  0  0  0  0  0
   12.9108   -3.1563    2.4920 H   0  0  0  0  0  0  0  0  0  0  0  0
   13.4654    0.5150    3.0262 H   0  0  0  0  0  0  0  0  0  0  0  0
   14.2725   -1.0549    2.8734 H   0  0  0  0  0  0  0  0  0  0  0  0
   13.5989   -0.2616    1.4398 H   0  0  0  0  0  0  0  0  0  0  0  0
   10.5168   -0.9944    0.3488 H   0  0  0  0  0  0  0  0  0  0  0  0
   10.5250    1.8978   -1.7178 H   0  0  0  0  0  0  0  0  0  0  0  0
   10.1146    0.1868   -1.5634 H   0  0  0  0  0  0  0  0  0  0  0  0
   12.7814   -0.0813   -1.1213 H   0  0  0  0  0  0  0  0  0  0  0  0
   12.0493   -0.1319   -2.7156 H   0  0  0  0  0  0  0  0  0  0  0  0
   14.0223    1.2380   -2.7494 H   0  0  0  0  0  0  0  0  0  0  0  0
   12.6020    2.1952   -3.1515 H   0  0  0  0  0  0  0  0  0  0  0  0
   13.9578    2.1802   -0.4037 H   0  0  0  0  0  0  0  0  0  0  0  0
   12.5673    3.1617   -0.8756 H   0  0  0  0  0  0  0  0  0  0  0  0
   14.3728    4.6351   -1.0421 H   0  0  0  0  0  0  0  0  0  0  0  0
   13.9929    4.2099   -2.7188 H   0  0  0  0  0  0  0  0  0  0  0  0
   18.3732    2.2452   -3.5831 H   0  0  0  0  0  0  0  0  0  0  0  0
   18.8794    2.8979   -1.0328 H   0  0  0  0  0  0  0  0  0  0  0  0
  1  2  1  0
  2  3  1  0
  3  4  1  0
  3  5  1  0
  5  6  1  0
  6  7  1  0
  7  8  1  0
  8  9  2  0
  8 10  1  0
 10 11  1  0
 11 12  1  0
 12 13  1  0
 13 14  1  0
 14 15  1  0
 15 16  1  0
 16 17  1  0
 16 18  1  0
 18 19  2  0
 18 20  1  0
 20 21  1  0
 21 22  1  0
 21 23  1  0
 23 24  1  0
 24 25  2  0
 25 26  1  0
 26 27  2  0
 27 28  1  0
 28 29  2  0
 23 30  1  0
 15 31  1  0
 31 32  1  0
  6 33  1  0
 33 34  1  0
  5 35  1  0
 35 36  1  0
 35 37  1  0
 37 38  2  0
 37 39  1  0
 39 40  1  0
 40 41  1  0
 40 42  1  0
 39 43  1  0
 43 44  1  0
 44 45  2  0
 44 46  1  0
 46 47  1  0
 47 48  1  0
 47 49  1  0
 46 50  1  0
 50 51  1  0
 50 52  1  0
 52 53  2  0
 52 54  1  0
 54 55  1  0
 55 56  1  0
 56 57  1  0
 57 58  2  0
 58 59  1  0
 59 60  2  0
 60 61  1  0
 59 62  1  0
 62 63  1  0
 63 64  2  0
 63 65  1  0
 65 66  1  0
 66 67  1  0
 67 68  1  0
 68 69  1  0
 69 70  1  0
 70 71  2  0
 70 72  1  0
 65 73  1  0
 73 74  1  0
 74 75  2  0
 74 76  1  0
 76 77  1  0
 77 78  1  0
 77 79  1  0
 76 80  1  0
 80 81  1  0
 81 82  2  0
 81 83  1  0
 83 84  1  0
 84 85  1  0
 85 86  1  0
 86 87  1  0
 87 88  1  0
 88 89  1  0
 89 90  2  0
 89 91  1  0
 91 92  2  0
 92 93  1  0
 93 94  2  0
 14 10  1  0
 29 24  1  0
 61 56  2  0
 93 88  1  0
  1 95  1  0
  1 96  1  0
  1 97  1  0
  2 98  1  0
  2 99  1  0
  3100  1  6
  4101  1  0
  4102  1  0
  4103  1  0
  5104  1  1
  6105  1  1
  7106  1  0
  7107  1  0
 11108  1  0
 11109  1  0
 12110  1  0
 12111  1  0
 13112  1  0
 13113  1  0
 14114  1  1
 15115  1  6
 16116  1  6
 17117  1  0
 17118  1  0
 17119  1  0
 20120  1  0
 21121  1  6
 22122  1  0
 22123  1  0
 22124  1  0
 23125  1  6
 25126  1  0
 26127  1  0
 27128  1  0
 28129  1  0
 29130  1  0
 30131  1  0
 32132  1  0
 32133  1  0
 32134  1  0
 34135  1  0
 34136  1  0
 34137  1  0
 36138  1  0
 36139  1  0
 36140  1  0
 39141  1  1
 40142  1  0
 41143  1  0
 41144  1  0
 41145  1  0
 42146  1  0
 42147  1  0
 42148  1  0
 43149  1  0
 46150  1  1
 47151  1  0
 48152  1  0
 48153  1  0
 48154  1  0
 49155  1  0
 49156  1  0
 49157  1  0
 51158  1  0
 51159  1  0
 51160  1  0
 55161  1  0
 55162  1  0
 57163  1  0
 58164  1  0
 60165  1  0
 61166  1  0
 62167  1  0
 65168  1  1
 66169  1  0
 66170  1  0
 67171  1  0
 67172  1  0
 68173  1  0
 68174  1  0
 69175  1  0
 72176  1  0
 72177  1  0
 73178  1  0
 76179  1  1
 77180  1  0
 78181  1  0
 78182  1  0
 78183  1  0
 79184  1  0
 79185  1  0
 79186  1  0
 80187  1  0
 83188  1  0
 83189  1  0
 84190  1  0
 84191  1  0
 85192  1  0
 85193  1  0
 86194  1  0
 86195  1  0
 87196  1  0
 87197  1  0
 91198  1  0
 92199  1  0
M  END
$$$$

     RDKit          3D

199202  0  0  0  0  0  0  0  0999 V2000
   -3.2210   -0.0741   -3.6321 C   0  0  0  0  0  0  0  0  0  0  0  0
   -4.7366   -0.1760   -3.7574 C   0  0  0  0  0  0  0  0  0  0  0  0
   -5.4425   -0.6788   -2.4706 C   0  0  2  0  0  0  0  0  0  0  0  0
   -6.8359   -1.1764   -2.8500 C   0  0  0  0  0  0  0  0  0  0  0  0
   -5.4181    0.3894   -1.3289 C   0  0  1  0  0  0  0  0  0  0  0  0
   -6.4620    1.5576   -1.3743 C   0  0  1  0  0  0  0  0  0  0  0  0
   -7.8941    1.2643   -0.9042 C   0  0  0  0  0  0  0  0  0  0  0  0
   -8.7649    2.4743   -1.2215 C   0  0  0  0  0  0  0  0  0  0  0  0
   -8.5618    3.1602   -2.2250 O   0  0  0  0  0  0  0  0  0  0  0  0
   -9.7890    2.7829   -0.3563 N   0  0  0  0  0  0  0  0  0  0  0  0
  -10.3045    4.1400   -0.3289 C   0  0  0  0  0  0  0  0  0  0  0  0
  -10.7636    4.3151    1.1034 C   0  0  0  0  0  0  0  0  0  0  0  0
  -11.3298    2.9456    1.4446 C   0  0  0  0  0  0  0  0  0  0  0  0
  -10.4265    1.9500    0.6807 C   0  0  1  0  0  0  0  0  0  0  0  0
  -11.1978    0.7244    0.0875 C   0  0  1  0  0  0  0  0  0  0  0  0
  -11.4428   -0.3777    1.1507 C   0  0  1  0  0  0  0  0  0  0  0  0
  -12.4203   -0.0115    2.2632 C   0  0  0  0  0  0  0  0  0  0  0  0
  -11.9131   -1.6776    0.4998 C   0  0  0  0  0  0  0  0  0  0  0  0
  -11.3656   -2.7489    0.7425 O   0  0  0  0  0  0  0  0  0  0  0  0
  -13.0108   -1.5651   -0.3131 N   0  0  0  0  0  0  0  0  0  0  0  0
  -13.7028   -2.7127   -0.8968 C   0  0  2  0  0  0  0  0  0  0  0  0
  -14.2350   -2.3452   -2.2832 C   0  0  0  0  0  0  0  0  0  0  0  0
  -14.7829   -3.3134    0.0550 C   0  0  1  0  0  0  0  0  0  0  0  0
  -15.8928   -2.3478    0.4363 C   0  0  0  0  0  0  0  0  0  0  0  0
  -15.8027   -1.6176    1.6319 C   0  0  0  0  0  0  0  0  0  0  0  0
  -16.7940   -0.7023    1.9904 C   0  0  0  0  0  0  0  0  0  0  0  0
  -17.8941   -0.5102    1.1578 C   0  0  0  0  0  0  0  0  0  0  0  0
  -18.0065   -1.2371   -0.0252 C   0  0  0  0  0  0  0  0  0  0  0  0
  -17.0143   -2.1512   -0.3804 C   0  0  0  0  0  0  0  0  0  0  0  0
  -15.3606   -4.4839   -0.5323 O   0  0  0  0  0  0  0  0  0  0  0  0
  -12.4713    1.1239   -0.4595 O   0  0  0  0  0  0  0  0  0  0  0  0
  -12.4332    1.4117   -1.8577 C   0  0  0  0  0  0  0  0  0  0  0  0
   -5.9748    2.5950   -0.4686 O   0  0  0  0  0  0  0  0  0  0  0  0
   -5.2757    3.6339   -1.1456 C   0  0  0  0  0  0  0  0  0  0  0  0
   -5.2261   -0.1482    0.0457 N   0  0  0  0  0  0  0  0  0  0  0  0
   -5.9541   -1.3512    0.4229 C   0  0  0  0  0  0  0  0  0  0  0  0
   -3.9045   -0.0806    0.5096 C   0  0  0  0  0  0  0  0  0  0  0  0
   -2.9603   -0.3694   -0.2346 O   0  0  0  0  0  0  0  0  0  0  0  0
   -3.6778    0.6534    1.8773 C   0  0  1  0  0  0  0  0  0  0  0  0
   -4.5769    0.2917    3.0907 C   0  0  0  0  0  0  0  0  0  0  0  0
   -3.9654    0.7246    4.4385 C   0  0  0  0  0  0  0  0  0  0  0  0
   -5.9544    0.9649    3.0023 C   0  0  0  0  0  0  0  0  0  0  0  0
   -2.2405    0.5762    2.1739 N   0  0  0  0  0  0  0  0  0  0  0  0
   -1.6090   -0.6195    2.4658 C   0  0  0  0  0  0  0  0  0  0  0  0
   -2.2298   -1.6623    2.6705 O   0  0  0  0  0  0  0  0  0  0  0  0
   -0.0763   -0.5070    2.6795 C   0  0  1  0  0  0  0  0  0  0  0  0
    0.6983   -1.8124    2.3447 C   0  0  0  0  0  0  0  0  0  0  0  0
    2.2005   -1.6732    2.5985 C   0  0  0  0  0  0  0  0  0  0  0  0
    0.4374   -2.4355    0.9710 C   0  0  0  0  0  0  0  0  0  0  0  0
    0.5197    0.7964    2.2968 N   0  0  0  0  0  0  0  0  0  0  0  0
    0.6833    1.7746    3.3646 C   0  0  0  0  0  0  0  0  0  0  0  0
    0.7354    1.2457    1.0027 C   0  0  0  0  0  0  0  0  0  0  0  0
    0.9757    2.4163    0.7406 O   0  0  0  0  0  0  0  0  0  0  0  0
    0.6327    0.2717    0.0715 O   0  0  0  0  0  0  0  0  0  0  0  0
    1.0240    0.6374   -1.2677 C   0  0  0  0  0  0  0  0  0  0  0  0
    2.5262    0.7708   -1.3671 C   0  0  0  0  0  0  0  0  0  0  0  0
    3.1110    2.0387   -1.4828 C   0  0  0  0  0  0  0  0  0  0  0  0
    4.4959    2.2011   -1.3929 C   0  0  0  0  0  0  0  0  0  0  0  0
    5.3204    1.1006   -1.1773 C   0  0  0  0  0  0  0  0  0  0  0  0
    4.7480   -0.1778   -1.1473 C   0  0  0  0  0  0  0  0  0  0  0  0
    3.3624   -0.3414   -1.2349 C   0  0  0  0  0  0  0  0  0  0  0  0
    6.6974    1.1908   -0.8923 N   0  0  0  0  0  0  0  0  0  0  0  0
    7.4338    2.3350   -0.6383 C   0  0  0  0  0  0  0  0  0  0  0  0
    7.0721    3.4916   -0.8602 O   0  0  0  0  0  0  0  0  0  0  0  0
    8.7451    2.0820    0.1639 C   0  0  1  0  0  0  0  0  0  0  0  0
    8.3942    1.7755    1.6370 C   0  0  0  0  0  0  0  0  0  0  0  0
    9.2505    2.5377    2.6588 C   0  0  0  0  0  0  0  0  0  0  0  0
   10.7507    2.3133    2.5430 C   0  0  0  0  0  0  0  0  0  0  0  0
   11.0900    0.9152    2.6418 N   0  0  0  0  0  0  0  0  0  0  0  0
   12.2999    0.4554    2.2289 C   0  0  0  0  0  0  0  0  0  0  0  0
   13.1536    1.1273    1.6573 O   0  0  0  0  0  0  0  0  0  0  0  0
   12.4573   -0.8711    2.4235 N   0  0  0  0  0  0  0  0  0  0  0  0
    9.6865    1.1243   -0.4337 N   0  0  0  0  0  0  0  0  0  0  0  0
    9.4713   -0.2292   -0.5476 C   0  0  0  0  0  0  0  0  0  0  0  0
    8.3886   -0.7396   -0.2549 O   0  0  0  0  0  0  0  0  0  0  0  0
   10.6652   -1.0527   -1.0989 C   0  0  1  0  0  0  0  0  0  0  0  0
   10.2327   -1.8925   -2.3348 C   0  0  0  0  0  0  0  0  0  0  0  0
   11.4122   -2.3464   -3.2007 C   0  0  0  0  0  0  0  0  0  0  0  0
    9.4401   -3.1377   -1.9106 C   0  0  0  0  0  0  0  0  0  0  0  0
   11.7821   -0.1506   -1.3999 N   0  0  0  0  0  0  0  0  0  0  0  0
   13.0743   -0.4421   -1.0117 C   0  0  0  0  0  0  0  0  0  0  0  0
   13.3810   -1.4860   -0.4492 O   0  0  0  0  0  0  0  0  0  0  0  0
   14.0580    0.6540   -1.3694 C   0  0  0  0  0  0  0  0  0  0  0  0
   15.4511    0.4261   -0.7863 C   0  0  0  0  0  0  0  0  0  0  0  0
   16.2288   -0.6421   -1.5518 C   0  0  0  0  0  0  0  0  0  0  0  0
   17.6169   -0.8534   -0.9512 C   0  0  0  0  0  0  0  0  0  0  0  0
   18.3097   -2.0649   -1.5761 C   0  0  0  0  0  0  0  0  0  0  0  0
   19.6633   -2.2162   -1.0882 N   0  0  0  0  0  0  0  0  0  0  0  0
   20.7681   -1.7681   -1.7329 C   0  0  0  0  0  0  0  0  0  0  0  0
   20.8534   -1.1967   -2.8039 O   0  0  0  0  0  0  0  0  0  0  0  0
   21.9194   -2.0883   -0.8820 C   0  0  0  0  0  0  0  0  0  0  0  0
   21.4580   -2.6745    0.2258 C   0  0  0  0  0  0  0  0  0  0  0  0
   19.9960   -2.7558    0.1107 C   0  0  0  0  0  0  0  0  0  0  0  0
   19.2764   -3.2254    0.9732 O   0  0  0  0  0  0  0  0  0  0  0  0
   -2.9184    0.7303   -2.9580 H   0  0  0  0  0  0  0  0  0  0  0  0
   -2.7913   -1.0135   -3.2680 H   0  0  0  0  0  0  0  0  0  0  0  0
   -2.7795    0.1386   -4.6128 H   0  0  0  0  0  0  0  0  0  0  0  0
   -4.9442   -0.8746   -4.5761 H   0  0  0  0  0  0  0  0  0  0  0  0
   -5.1422    0.7949   -4.0601 H   0  0  0  0  0  0  0  0  0  0  0  0
   -4.8721   -1.5529   -2.1356 H   0  0  0  0  0  0  0  0  0  0  0  0
   -7.3923   -1.5352   -1.9835 H   0  0  0  0  0  0  0  0  0  0  0  0
   -6.7656   -2.0162   -3.5523 H   0  0  0  0  0  0  0  0  0  0  0  0
   -7.4154   -0.3937   -3.3510 H   0  0  0  0  0  0  0  0  0  0  0  0
   -4.4843    0.9392   -1.5008 H   0  0  0  0  0  0  0  0  0  0  0  0
   -6.4842    1.9456   -2.4012 H   0  0  0  0  0  0  0  0  0  0  0  0
   -8.3374    0.4115   -1.4144 H   0  0  0  0  0  0  0  0  0  0  0  0
   -7.8964    1.0826    0.1731 H   0  0  0  0  0  0  0  0  0  0  0  0
   -9.5387    4.8665   -0.6108 H   0  0  0  0  0  0  0  0  0  0  0  0
  -11.1426    4.2047   -1.0330 H   0  0  0  0  0  0  0  0  0  0  0  0
   -9.9020    4.5299    1.7505 H   0  0  0  0  0  0  0  0  0  0  0  0
  -11.4902    5.1230    1.2201 H   0  0  0  0  0  0  0  0  0  0  0  0
  -12.3722    2.9044    1.1125 H   0  0  0  0  0  0  0  0  0  0  0  0
  -11.3176    2.7726    2.5232 H   0  0  0  0  0  0  0  0  0  0  0  0
   -9.6250    1.5994    1.3394 H   0  0  0  0  0  0  0  0  0  0  0  0
  -10.5987    0.2679   -0.7106 H   0  0  0  0  0  0  0  0  0  0  0  0
  -10.4749   -0.6142    1.6120 H   0  0  0  0  0  0  0  0  0  0  0  0
  -13.3465    0.4264    1.8755 H   0  0  0  0  0  0  0  0  0  0  0  0
  -11.9709    0.6969    2.9630 H   0  0  0  0  0  0  0  0  0  0  0  0
  -12.6938   -0.8991    2.8473 H   0  0  0  0  0  0  0  0  0  0  0  0
  -13.4763   -0.6605   -0.3519 H   0  0  0  0  0  0  0  0  0  0  0  0
  -12.9541   -3.5018   -1.0539 H   0  0  0  0  0  0  0  0  0  0  0  0
  -13.4086   -2.0609   -2.9449 H   0  0  0  0  0  0  0  0  0  0  0  0
  -14.9151   -1.4893   -2.2428 H   0  0  0  0  0  0  0  0  0  0  0  0
  -14.7593   -3.1854   -2.7462 H   0  0  0  0  0  0  0  0  0  0  0  0
  -14.2975   -3.6499    0.9800 H   0  0  0  0  0  0  0  0  0  0  0  0
  -14.9563   -1.7664    2.3004 H   0  0  0  0  0  0  0  0  0  0  0  0
  -16.7060   -0.1430    2.9205 H   0  0  0  0  0  0  0  0  0  0  0  0
  -18.6693    0.2034    1.4387 H   0  0  0  0  0  0  0  0  0  0  0  0
  -18.8689   -1.0940   -0.6706 H   0  0  0  0  0  0  0  0  0  0  0  0
  -17.1218   -2.7181   -1.3018 H   0  0  0  0  0  0  0  0  0  0  0  0
  -14.6547   -5.1550   -0.5746 H   0  0  0  0  0  0  0  0  0  0  0  0
  -12.1524    0.5155   -2.4183 H   0  0  0  0  0  0  0  0  0  0  0  0
  -13.4377    1.7139   -2.1689 H   0  0  0  0  0  0  0  0  0  0  0  0
  -11.7427    2.2282   -2.0814 H   0  0  0  0  0  0  0  0  0  0  0  0
   -4.9400    4.3570   -0.3987 H   0  0  0  0  0  0  0  0  0  0  0  0
   -5.9420    4.1469   -1.8472 H   0  0  0  0  0  0  0  0  0  0  0  0
   -4.4044    3.2424   -1.6726 H   0  0  0  0  0  0  0  0  0  0  0  0
   -7.0255   -1.2094    0.2528 H   0  0  0  0  0  0  0  0  0  0  0  0
   -5.5885   -2.2076   -0.1492 H   0  0  0  0  0  0  0  0  0  0  0  0
   -5.7949   -1.5845    1.4747 H   0  0  0  0  0  0  0  0  0  0  0  0
   -3.8380    1.7191    1.6519 H   0  0  0  0  0  0  0  0  0  0  0  0
   -4.7130   -0.7935    3.1366 H   0  0  0  0  0  0  0  0  0  0  0  0
   -3.0371    0.1952    4.6611 H   0  0  0  0  0  0  0  0  0  0  0  0
   -3.7599    1.8003    4.4475 H   0  0  0  0  0  0  0  0  0  0  0  0
   -4.6578    0.5107    5.2595 H   0  0  0  0  0  0  0  0  0  0  0  0
   -6.5889    0.6470    3.8360 H   0  0  0  0  0  0  0  0  0  0  0  0
   -5.8627    2.0557    3.0534 H   0  0  0  0  0  0  0  0  0  0  0  0
   -6.4877    0.7277    2.0829 H   0  0  0  0  0  0  0  0  0  0  0  0
   -1.6562    1.2656    1.7206 H   0  0  0  0  0  0  0  0  0  0  0  0
   -0.0270   -0.4815    3.7805 H   0  0  0  0  0  0  0  0  0  0  0  0
    0.3277   -2.5615    3.0601 H   0  0  0  0  0  0  0  0  0  0  0  0
    2.3929   -1.3275    3.6201 H   0  0  0  0  0  0  0  0  0  0  0  0
    2.6657   -0.9663    1.9034 H   0  0  0  0  0  0  0  0  0  0  0  0
    2.7059   -2.6392    2.4751 H   0  0  0  0  0  0  0  0  0  0  0  0
   -0.5913   -2.2974    0.6395 H   0  0  0  0  0  0  0  0  0  0  0  0
    1.1107   -2.0477    0.2030 H   0  0  0  0  0  0  0  0  0  0  0  0
    0.6220   -3.5169    1.0170 H   0  0  0  0  0  0  0  0  0  0  0  0
    1.1199    1.2916    4.2456 H   0  0  0  0  0  0  0  0  0  0  0  0
   -0.2993    2.1866    3.6184 H   0  0  0  0  0  0  0  0  0  0  0  0
    1.3489    2.5915    3.0699 H   0  0  0  0  0  0  0  0  0  0  0  0
    0.6927   -0.1669   -1.9355 H   0  0  0  0  0  0  0  0  0  0  0  0
    0.4985    1.5447   -1.5899 H   0  0  0  0  0  0  0  0  0  0  0  0
    2.4890    2.9226   -1.5842 H   0  0  0  0  0  0  0  0  0  0  0  0
    4.8888    3.2120   -1.4395 H   0  0  0  0  0  0  0  0  0  0  0  0
    5.3719   -1.0567   -0.9917 H   0  0  0  0  0  0  0  0  0  0  0  0
    2.9432   -1.3419   -1.1463 H   0  0  0  0  0  0  0  0  0  0  0  0
    7.1560    0.3096   -0.6591 H   0  0  0  0  0  0  0  0  0  0  0  0
    9.2779    3.0416    0.1139 H   0  0  0  0  0  0  0  0  0  0  0  0
    8.4606    0.7026    1.8457 H   0  0  0  0  0  0  0  0  0  0  0  0
    7.3479    2.0520    1.8333 H   0  0  0  0  0  0  0  0  0  0  0  0
    9.0453    3.6125    2.5727 H   0  0  0  0  0  0  0  0  0  0  0  0
    8.9231    2.2326    3.6614 H   0  0  0  0  0  0  0  0  0  0  0  0
   11.1475    2.7180    1.6066 H   0  0  0  0  0  0  0  0  0  0  0  0
   11.2678    2.8323    3.3583 H   0  0  0  0  0  0  0  0  0  0  0  0
   10.6183    0.3660    3.3451 H   0  0  0  0  0  0  0  0  0  0  0  0
   13.3391   -1.2694    2.1095 H   0  0  0  0  0  0  0  0  0  0  0  0
   11.9901   -1.3462    3.1800 H   0  0  0  0  0  0  0  0  0  0  0  0
   10.6687    1.3665   -0.3497 H   0  0  0  0  0  0  0  0  0  0  0  0
   10.9739   -1.7173   -0.2815 H   0  0  0  0  0  0  0  0  0  0  0  0
    9.5791   -1.2791   -2.9658 H   0  0  0  0  0  0  0  0  0  0  0  0
   11.9346   -1.4935   -3.6448 H   0  0  0  0  0  0  0  0  0  0  0  0
   12.1326   -2.9344   -2.6208 H   0  0  0  0  0  0  0  0  0  0  0  0
   11.0640   -2.9728   -4.0311 H   0  0  0  0  0  0  0  0  0  0  0  0
    9.1861   -3.7513   -2.7816 H   0  0  0  0  0  0  0  0  0  0  0  0
   10.0198   -3.7595   -1.2186 H   0  0  0  0  0  0  0  0  0  0  0  0
    8.4976   -2.8763   -1.4214 H   0  0  0  0  0  0  0  0  0  0  0  0
   11.6284    0.6016   -2.0607 H   0  0  0  0  0  0  0  0  0  0  0  0
   13.6643    1.5979   -0.9726 H   0  0  0  0  0  0  0  0  0  0  0  0
   14.1067    0.7453   -2.4593 H   0  0  0  0  0  0  0  0  0  0  0  0
   15.3766    0.1439    0.2686 H   0  0  0  0  0  0  0  0  0  0  0  0
   16.0110    1.3685   -0.8253 H   0  0  0  0  0  0  0  0  0  0  0  0
   15.6790   -1.5898   -1.5399 H   0  0  0  0  0  0  0  0  0  0  0  0
   16.3273   -0.3483   -2.6039 H   0  0  0  0  0  0  0  0  0  0  0  0
   17.5390   -0.9973    0.1350 H   0  0  0  0  0  0  0  0  0  0  0  0
   18.2235    0.0489   -1.1007 H   0  0  0  0  0  0  0  0  0  0  0  0
   17.7525   -2.9765   -1.3344 H   0  0  0  0  0  0  0  0  0  0  0  0
   18.3373   -1.9565   -2.6671 H   0  0  0  0  0  0  0  0  0  0  0  0
   22.9373   -1.8628   -1.1522 H   0  0  0  0  0  0  0  0  0  0  0  0
   22.0087   -3.0398    1.0748 H   0  0  0  0  0  0  0  0  0  0  0  0
  1  2  1  0
  2  3  1  0
  3  4  1  0
  3  5  1  0
  5  6  1  0
  6  7  1  0
  7  8  1  0
  8  9  2  0
  8 10  1  0
 10 11  1  0
 11 12  1  0
 12 13  1  0
 13 14  1  0
 14 15  1  0
 15 16  1  0
 16 17  1  0
 16 18  1  0
 18 19  2  0
 18 20  1  0
 20 21  1  0
 21 22  1  0
 21 23  1  0
 23 24  1  0
 24 25  2  0
 25 26  1  0
 26 27  2  0
 27 28  1  0
 28 29  2  0
 23 30  1  0
 15 31  1  0
 31 32  1  0
  6 33  1  0
 33 34  1  0
  5 35  1  0
 35 36  1  0
 35 37  1  0
 37 38  2  0
 37 39  1  0
 39 40  1  0
 40 41  1  0
 40 42  1  0
 39 43  1  0
 43 44  1  0
 44 45  2  0
 44 46  1  0
 46 47  1  0
 47 48  1  0
 47 49  1  0
 46 50  1  0
 50 51  1  0
 50 52  1  0
 52 53  2  0
 52 54  1  0
 54 55  1  0
 55 56  1  0
 56 57  1  0
 57 58  2  0
 58 59  1  0
 59 60  2  0
 60 61  1  0
 59 62  1  0
 62 63  1  0
 63 64  2  0
 63 65  1  0
 65 66  1  0
 66 67  1  0
 67 68  1  0
 68 69  1  0
 69 70  1  0
 70 71  2  0
 70 72  1  0
 65 73  1  0
 73 74  1  0
 74 75  2  0
 74 76  1  0
 76 77  1  0
 77 78  1  0
 77 79  1  0
 76 80  1  0
 80 81  1  0
 81 82  2  0
 81 83  1  0
 83 84  1  0
 84 85  1  0
 85 86  1  0
 86 87  1  0
 87 88  1  0
 88 89  1  0
 89 90  2  0
 89 91  1  0
 91 92  2  0
 92 93  1  0
 93 94  2  0
 14 10  1  0
 29 24  1  0
 61 56  2  0
 93 88  1  0
  1 95  1  0
  1 96  1  0
  1 97  1  0
  2 98  1  0
  2 99  1  0
  3100  1  1
  4101  1  0
  4102  1  0
  4103  1  0
  5104  1  6
  6105  1  6
  7106  1  0
  7107  1  0
 11108  1  0
 11109  1  0
 12110  1  0
 12111  1  0
 13112  1  0
 13113  1  0
 14114  1  1
 15115  1  6
 16116  1  1
 17117  1  0
 17118  1  0
 17119  1  0
 20120  1  0
 21121  1  6
 22122  1  0
 22123  1  0
 22124  1  0
 23125  1  1
 25126  1  0
 26127  1  0
 27128  1  0
 28129  1  0
 29130  1  0
 30131  1  0
 32132  1  0
 32133  1  0
 32134  1  0
 34135  1  0
 34136  1  0
 34137  1  0
 36138  1  0
 36139  1  0
 36140  1  0
 39141  1  6
 40142  1  0
 41143  1  0
 41144  1  0
 41145  1  0
 42146  1  0
 42147  1  0
 42148  1  0
 43149  1  0
 46150  1  1
 47151  1  0
 48152  1  0
 48153  1  0
 48154  1  0
 49155  1  0
 49156  1  0
 49157  1  0
 51158  1  0
 51159  1  0
 51160  1  0
 55161  1  0
 55162  1  0
 57163  1  0
 58164  1  0
 60165  1  0
 61166  1  0
 62167  1  0
 65168  1  1
 66169  1  0
 66170  1  0
 67171  1  0
 67172  1  0
 68173  1  0
 68174  1  0
 69175  1  0
 72176  1  0
 72177  1  0
 73178  1  0
 76179  1  1
 77180  1  0
 78181  1  0
 78182  1  0
 78183  1  0
 79184  1  0
 79185  1  0
 79186  1  0
 80187  1  0
 83188  1  0
 83189  1  0
 84190  1  0
 84191  1  0
 85192  1  0
 85193  1  0
 86194  1  0
 86195  1  0
 87196  1  0
 87197  1  0
 91198  1  0
 92199  1  0
M  END
$$$$

     RDKit          3D

199202  0  0  0  0  0  0  0  0999 V2000
   -7.0267   -3.0763   -2.2822 C   0  0  0  0  0  0  0  0  0  0  0  0
   -7.4242   -1.6164   -2.1792 C   0  0  0  0  0  0  0  0  0  0  0  0
   -6.3756   -0.6119   -1.6530 C   0  0  2  0  0  0  0  0  0  0  0  0
   -5.1519   -0.5658   -2.5815 C   0  0  0  0  0  0  0  0  0  0  0  0
   -5.9967   -0.6017   -0.1263 C   0  0  1  0  0  0  0  0  0  0  0  0
   -7.1683   -0.7656    0.9080 C   0  0  1  0  0  0  0  0  0  0  0  0
   -8.2162    0.3496    0.7351 C   0  0  0  0  0  0  0  0  0  0  0  0
   -8.9441    0.6087    2.0366 C   0  0  0  0  0  0  0  0  0  0  0  0
   -8.2945    0.8877    3.0475 O   0  0  0  0  0  0  0  0  0  0  0  0
  -10.3199    0.5430    2.0606 N   0  0  0  0  0  0  0  0  0  0  0  0
  -10.9965    0.6123    3.3495 C   0  0  0  0  0  0  0  0  0  0  0  0
  -12.4746    0.5381    3.0338 C   0  0  0  0  0  0  0  0  0  0  0  0
  -12.5083   -0.2893    1.7566 C   0  0  0  0  0  0  0  0  0  0  0  0
  -11.2527    0.1366    0.9809 C   0  0  1  0  0  0  0  0  0  0  0  0
  -11.4766    1.2809   -0.0638 C   0  0  1  0  0  0  0  0  0  0  0  0
  -11.9242    0.8179   -1.4680 C   0  0  1  0  0  0  0  0  0  0  0  0
  -10.8306    0.0427   -2.2055 C   0  0  0  0  0  0  0  0  0  0  0  0
  -13.2194    0.0168   -1.4757 C   0  0  0  0  0  0  0  0  0  0  0  0
  -13.2701   -1.1837   -1.7288 O   0  0  0  0  0  0  0  0  0  0  0  0
  -14.3467    0.7459   -1.1914 N   0  0  0  0  0  0  0  0  0  0  0  0
  -15.7101    0.1970   -1.3035 C   0  0  2  0  0  0  0  0  0  0  0  0
  -16.6765    1.3729   -1.4629 C   0  0  0  0  0  0  0  0  0  0  0  0
  -16.0848   -0.7427   -0.1109 C   0  0  1  0  0  0  0  0  0  0  0  0
  -17.5305   -1.1974   -0.1314 C   0  0  0  0  0  0  0  0  0  0  0  0
  -18.4406   -0.7113    0.8188 C   0  0  0  0  0  0  0  0  0  0  0  0
  -19.7827   -1.0985    0.7814 C   0  0  0  0  0  0  0  0  0  0  0  0
  -20.2299   -1.9755   -0.2032 C   0  0  0  0  0  0  0  0  0  0  0  0
  -19.3329   -2.4793   -1.1453 C   0  0  0  0  0  0  0  0  0  0  0  0
  -17.9928   -2.0902   -1.1105 C   0  0  0  0  0  0  0  0  0  0  0  0
  -15.2860   -1.9335   -0.0899 O   0  0  0  0  0  0  0  0  0  0  0  0
  -12.4392    2.2509    0.3936 O   0  0  0  0  0  0  0  0  0  0  0  0
  -11.8298    3.4338    0.9034 C   0  0  0  0  0  0  0  0  0  0  0  0
   -7.8284   -2.0293    0.7332 O   0  0  0  0  0  0  0  0  0  0  0  0
   -8.1861   -2.6564    1.9627 C   0  0  0  0  0  0  0  0  0  0  0  0
   -4.7769   -1.3889    0.2444 N   0  0  0  0  0  0  0  0  0  0  0  0
   -4.8463   -2.8439    0.2325 C   0  0  0  0  0  0  0  0  0  0  0  0
   -3.4806   -0.8680    0.3217 C   0  0  0  0  0  0  0  0  0  0  0  0
   -2.4935   -1.6156    0.3902 O   0  0  0  0  0  0  0  0  0  0  0  0
   -3.2547    0.6638    0.3784 C   0  0  1  0  0  0  0  0  0  0  0  0
   -3.6362    1.2450    1.7608 C   0  0  0  0  0  0  0  0  0  0  0  0
   -2.6545    0.8533    2.8704 C   0  0  0  0  0  0  0  0  0  0  0  0
   -3.7717    2.7704    1.7026 C   0  0  0  0  0  0  0  0  0  0  0  0
   -1.8464    0.8876    0.0508 N   0  0  0  0  0  0  0  0  0  0  0  0
   -1.4078    1.8697   -0.8104 C   0  0  0  0  0  0  0  0  0  0  0  0
   -2.1627    2.7125   -1.2890 O   0  0  0  0  0  0  0  0  0  0  0  0
    0.1093    1.7814   -1.1268 C   0  0  1  0  0  0  0  0  0  0  0  0
    0.6093    2.7902   -2.1922 C   0  0  0  0  0  0  0  0  0  0  0  0
   -0.0454    2.5373   -3.5602 C   0  0  0  0  0  0  0  0  0  0  0  0
    2.1325    2.6912   -2.3749 C   0  0  0  0  0  0  0  0  0  0  0  0
    0.8359    1.8772    0.1621 N   0  0  0  0  0  0  0  0  0  0  0  0
    0.8289    3.1542    0.8697 C   0  0  0  0  0  0  0  0  0  0  0  0
    1.3264    0.7116    0.7302 C   0  0  0  0  0  0  0  0  0  0  0  0
    1.1929   -0.3922    0.2135 O   0  0  0  0  0  0  0  0  0  0  0  0
    1.9578    0.9247    1.9124 O   0  0  0  0  0  0  0  0  0  0  0  0
    2.5311   -0.2355    2.5260 C   0  0  0  0  0  0  0  0  0  0  0  0
    3.9839   -0.3492    2.1455 C   0  0  0  0  0  0  0  0  0  0  0  0
    4.9023    0.6183    2.5712 C   0  0  0  0  0  0  0  0  0  0  0  0
    6.2518    0.5140    2.2254 C   0  0  0  0  0  0  0  0  0  0  0  0
    6.7111   -0.5596    1.4550 C   0  0  0  0  0  0  0  0  0  0  0  0
    5.7976   -1.5192    1.0182 C   0  0  0  0  0  0  0  0  0  0  0  0
    4.4422   -1.4095    1.3556 C   0  0  0  0  0  0  0  0  0  0  0  0
    8.0871   -0.5889    1.1723 N   0  0  0  0  0  0  0  0  0  0  0  0
    8.8216   -1.5719    0.5319 C   0  0  0  0  0  0  0  0  0  0  0  0
    8.3765   -2.6513    0.1447 O   0  0  0  0  0  0  0  0  0  0  0  0
   10.3450   -1.2379    0.4604 C   0  0  1  0  0  0  0  0  0  0  0  0
   11.1060   -2.3633   -0.2673 C   0  0  0  0  0  0  0  0  0  0  0  0
   12.6326   -2.1931   -0.3244 C   0  0  0  0  0  0  0  0  0  0  0  0
   13.3297   -2.2423    1.0372 C   0  0  0  0  0  0  0  0  0  0  0  0
   13.2022   -3.5336    1.6844 N   0  0  0  0  0  0  0  0  0  0  0  0
   13.9235   -4.6063    1.2349 C   0  0  0  0  0  0  0  0  0  0  0  0
   14.6390   -4.6350    0.2461 O   0  0  0  0  0  0  0  0  0  0  0  0
   13.7472   -5.6957    2.0254 N   0  0  0  0  0  0  0  0  0  0  0  0
   10.5907    0.0551   -0.1900 N   0  0  0  0  0  0  0  0  0  0  0  0
   10.5120    1.2590    0.4847 C   0  0  0  0  0  0  0  0  0  0  0  0
    9.8932    1.3676    1.5436 O   0  0  0  0  0  0  0  0  0  0  0  0
   11.0818    2.4623   -0.3135 C   0  0  1  0  0  0  0  0  0  0  0  0
   11.1303    3.7826    0.4926 C   0  0  0  0  0  0  0  0  0  0  0  0
   12.1383    3.8008    1.6419 C   0  0  0  0  0  0  0  0  0  0  0  0
   11.3794    4.9815   -0.4287 C   0  0  0  0  0  0  0  0  0  0  0  0
   12.3062    2.1294   -1.0545 N   0  0  0  0  0  0  0  0  0  0  0  0
   13.4235    1.6165   -0.4256 C   0  0  0  0  0  0  0  0  0  0  0  0
   13.4090    1.2022    0.7254 O   0  0  0  0  0  0  0  0  0  0  0  0
   14.6357    1.5323   -1.3343 C   0  0  0  0  0  0  0  0  0  0  0  0
   15.8568    0.9730   -0.6029 C   0  0  0  0  0  0  0  0  0  0  0  0
   17.0426    0.6639   -1.5207 C   0  0  0  0  0  0  0  0  0  0  0  0
   16.8183   -0.4817   -2.5163 C   0  0  0  0  0  0  0  0  0  0  0  0
   16.5338   -1.8514   -1.8886 C   0  0  0  0  0  0  0  0  0  0  0  0
   17.6726   -2.3980   -1.1806 N   0  0  0  0  0  0  0  0  0  0  0  0
   17.8539   -2.3588    0.1641 C   0  0  0  0  0  0  0  0  0  0  0  0
   17.1657   -1.8427    1.0245 O   0  0  0  0  0  0  0  0  0  0  0  0
   19.1221   -3.0421    0.4460 C   0  0  0  0  0  0  0  0  0  0  0  0
   19.6485   -3.4222   -0.7180 C   0  0  0  0  0  0  0  0  0  0  0  0
   18.7286   -3.0020   -1.7809 C   0  0  0  0  0  0  0  0  0  0  0  0
   18.9424   -3.1744   -2.9673 O   0  0  0  0  0  0  0  0  0  0  0  0
   -7.7960   -3.6255   -2.8377 H   0  0  0  0  0  0  0  0  0  0  0  0
   -6.0819   -3.2098   -2.8140 H   0  0  0  0  0  0  0  0  0  0  0  0
   -6.9585   -3.5456   -1.2993 H   0  0  0  0  0  0  0  0  0  0  0  0
   -7.7044   -1.2907   -3.1901 H   0  0  0  0  0  0  0  0  0  0  0  0
   -8.3471   -1.5409   -1.6007 H   0  0  0  0  0  0  0  0  0  0  0  0
   -6.8705    0.3599   -1.8048 H   0  0  0  0  0  0  0  0  0  0  0  0
   -4.5199    0.2965   -2.3556 H   0  0  0  0  0  0  0  0  0  0  0  0
   -5.4643   -0.4640   -3.6257 H   0  0  0  0  0  0  0  0  0  0  0  0
   -4.5393   -1.4673   -2.5030 H   0  0  0  0  0  0  0  0  0  0  0  0
   -5.6926    0.4348    0.0350 H   0  0  0  0  0  0  0  0  0  0  0  0
   -6.7181   -0.7227    1.9091 H   0  0  0  0  0  0  0  0  0  0  0  0
   -8.9028    0.0981   -0.0689 H   0  0  0  0  0  0  0  0  0  0  0  0
   -7.7394    1.3013    0.4713 H   0  0  0  0  0  0  0  0  0  0  0  0
  -10.7208    1.5281    3.8823 H   0  0  0  0  0  0  0  0  0  0  0  0
  -10.6772   -0.2510    3.9448 H   0  0  0  0  0  0  0  0  0  0  0  0
  -13.0537    0.0880    3.8450 H   0  0  0  0  0  0  0  0  0  0  0  0
  -12.8783    1.5388    2.8537 H   0  0  0  0  0  0  0  0  0  0  0  0
  -13.4422   -0.1611    1.2131 H   0  0  0  0  0  0  0  0  0  0  0  0
  -12.4245   -1.3524    2.0197 H   0  0  0  0  0  0  0  0  0  0  0  0
  -10.8144   -0.7359    0.4892 H   0  0  0  0  0  0  0  0  0  0  0  0
  -10.5198    1.7987   -0.2139 H   0  0  0  0  0  0  0  0  0  0  0  0
  -12.1297    1.7177   -2.0668 H   0  0  0  0  0  0  0  0  0  0  0  0
  -11.1375   -0.1668   -3.2367 H   0  0  0  0  0  0  0  0  0  0  0  0
   -9.9013    0.6185   -2.2485 H   0  0  0  0  0  0  0  0  0  0  0  0
  -10.6226   -0.9224   -1.7338 H   0  0  0  0  0  0  0  0  0  0  0  0
  -14.2070    1.6249   -0.6976 H   0  0  0  0  0  0  0  0  0  0  0  0
  -15.7243   -0.3925   -2.2293 H   0  0  0  0  0  0  0  0  0  0  0  0
  -17.6910    1.0388   -1.7034 H   0  0  0  0  0  0  0  0  0  0  0  0
  -16.3507    2.0293   -2.2792 H   0  0  0  0  0  0  0  0  0  0  0  0
  -16.7184    1.9797   -0.5502 H   0  0  0  0  0  0  0  0  0  0  0  0
  -15.8761   -0.2203    0.8302 H   0  0  0  0  0  0  0  0  0  0  0  0
  -18.1118   -0.0276    1.5976 H   0  0  0  0  0  0  0  0  0  0  0  0
  -20.4815   -0.7139    1.5209 H   0  0  0  0  0  0  0  0  0  0  0  0
  -21.2727   -2.2810   -0.2294 H   0  0  0  0  0  0  0  0  0  0  0  0
  -19.6785   -3.1707   -1.9078 H   0  0  0  0  0  0  0  0  0  0  0  0
  -17.3018   -2.4995   -1.8461 H   0  0  0  0  0  0  0  0  0  0  0  0
  -14.5338   -1.8009   -0.6984 H   0  0  0  0  0  0  0  0  0  0  0  0
  -12.6108    4.0631    1.3410 H   0  0  0  0  0  0  0  0  0  0  0  0
  -11.0950    3.2032    1.6796 H   0  0  0  0  0  0  0  0  0  0  0  0
  -11.3534    3.9873    0.0885 H   0  0  0  0  0  0  0  0  0  0  0  0
   -7.2977   -2.8341    2.5772 H   0  0  0  0  0  0  0  0  0  0  0  0
   -8.6422   -3.6219    1.7299 H   0  0  0  0  0  0  0  0  0  0  0  0
   -8.9127   -2.0560    2.5150 H   0  0  0  0  0  0  0  0  0  0  0  0
   -4.0559   -3.2781    0.8531 H   0  0  0  0  0  0  0  0  0  0  0  0
   -4.6992   -3.1977   -0.7903 H   0  0  0  0  0  0  0  0  0  0  0  0
   -5.7899   -3.2048    0.6329 H   0  0  0  0  0  0  0  0  0  0  0  0
   -3.8438    1.1369   -0.4089 H   0  0  0  0  0  0  0  0  0  0  0  0
   -4.6168    0.8495    2.0493 H   0  0  0  0  0  0  0  0  0  0  0  0
   -2.5536   -0.2347    2.9440 H   0  0  0  0  0  0  0  0  0  0  0  0
   -3.0117    1.2168    3.8407 H   0  0  0  0  0  0  0  0  0  0  0  0
   -1.6601    1.2807    2.7054 H   0  0  0  0  0  0  0  0  0  0  0  0
   -4.4921    3.0681    0.9333 H   0  0  0  0  0  0  0  0  0  0  0  0
   -2.8150    3.2542    1.4824 H   0  0  0  0  0  0  0  0  0  0  0  0
   -4.1295    3.1610    2.6612 H   0  0  0  0  0  0  0  0  0  0  0  0
   -1.2238    0.0974    0.2278 H   0  0  0  0  0  0  0  0  0  0  0  0
    0.2586    0.7776   -1.5463 H   0  0  0  0  0  0  0  0  0  0  0  0
    0.3603    3.8138   -1.8846 H   0  0  0  0  0  0  0  0  0  0  0  0
    0.1630    1.5215   -3.9185 H   0  0  0  0  0  0  0  0  0  0  0  0
   -1.1302    2.6694   -3.5278 H   0  0  0  0  0  0  0  0  0  0  0  0
    0.3417    3.2422   -4.3063 H   0  0  0  0  0  0  0  0  0  0  0  0
    2.4388    1.6581   -2.5727 H   0  0  0  0  0  0  0  0  0  0  0  0
    2.4686    3.3094   -3.2142 H   0  0  0  0  0  0  0  0  0  0  0  0
    2.6690    3.0352   -1.4861 H   0  0  0  0  0  0  0  0  0  0  0  0
    1.4281    3.8814    0.3139 H   0  0  0  0  0  0  0  0  0  0  0  0
    1.2362    3.0757    1.8813 H   0  0  0  0  0  0  0  0  0  0  0  0
   -0.1986    3.5191    0.9492 H   0  0  0  0  0  0  0  0  0  0  0  0
    2.4592   -0.1002    3.6121 H   0  0  0  0  0  0  0  0  0  0  0  0
    1.9713   -1.1524    2.3002 H   0  0  0  0  0  0  0  0  0  0  0  0
    4.5702    1.4594    3.1777 H   0  0  0  0  0  0  0  0  0  0  0  0
    6.9410    1.2794    2.5745 H   0  0  0  0  0  0  0  0  0  0  0  0
    6.1051   -2.3585    0.4032 H   0  0  0  0  0  0  0  0  0  0  0  0
    3.7460   -2.1618    0.9894 H   0  0  0  0  0  0  0  0  0  0  0  0
    8.6318    0.2003    1.5274 H   0  0  0  0  0  0  0  0  0  0  0  0
   10.6922   -1.1681    1.4982 H   0  0  0  0  0  0  0  0  0  0  0  0
   10.8722   -3.3274    0.2015 H   0  0  0  0  0  0  0  0  0  0  0  0
   10.7376   -2.4316   -1.2988 H   0  0  0  0  0  0  0  0  0  0  0  0
   12.8850   -1.2484   -0.8164 H   0  0  0  0  0  0  0  0  0  0  0  0
   13.0341   -2.9796   -0.9738 H   0  0  0  0  0  0  0  0  0  0  0  0
   12.9180   -1.4919    1.7169 H   0  0  0  0  0  0  0  0  0  0  0  0
   14.3964   -2.0290    0.9126 H   0  0  0  0  0  0  0  0  0  0  0  0
   13.1255   -3.5140    2.6915 H   0  0  0  0  0  0  0  0  0  0  0  0
   12.8129   -5.8199    2.3889 H   0  0  0  0  0  0  0  0  0  0  0  0
   14.1520   -6.5347    1.6279 H   0  0  0  0  0  0  0  0  0  0  0  0
   11.1885    0.0613   -1.0090 H   0  0  0  0  0  0  0  0  0  0  0  0
   10.3353    2.6139   -1.1080 H   0  0  0  0  0  0  0  0  0  0  0  0
   10.1378    3.9277    0.9409 H   0  0  0  0  0  0  0  0  0  0  0  0
   12.0089    2.9397    2.3041 H   0  0  0  0  0  0  0  0  0  0  0  0
   13.1706    3.8121    1.2775 H   0  0  0  0  0  0  0  0  0  0  0  0
   12.0011    4.7023    2.2503 H   0  0  0  0  0  0  0  0  0  0  0  0
   11.2881    5.9215    0.1272 H   0  0  0  0  0  0  0  0  0  0  0  0
   12.3816    4.9500   -0.8694 H   0  0  0  0  0  0  0  0  0  0  0  0
   10.6488    5.0087   -1.2441 H   0  0  0  0  0  0  0  0  0  0  0  0
   12.4581    2.6308   -1.9209 H   0  0  0  0  0  0  0  0  0  0  0  0
   14.3597    0.8928   -2.1797 H   0  0  0  0  0  0  0  0  0  0  0  0
   14.8586    2.5342   -1.7180 H   0  0  0  0  0  0  0  0  0  0  0  0
   16.1807    1.7102    0.1439 H   0  0  0  0  0  0  0  0  0  0  0  0
   15.5824    0.0793   -0.0343 H   0  0  0  0  0  0  0  0  0  0  0  0
   17.3003    1.5694   -2.0856 H   0  0  0  0  0  0  0  0  0  0  0  0
   17.9166    0.4343   -0.8997 H   0  0  0  0  0  0  0  0  0  0  0  0
   15.9894   -0.2275   -3.1859 H   0  0  0  0  0  0  0  0  0  0  0  0
   17.7084   -0.5570   -3.1544 H   0  0  0  0  0  0  0  0  0  0  0  0
   15.6754   -1.8054   -1.2134 H   0  0  0  0  0  0  0  0  0  0  0  0
   16.2809   -2.5531   -2.6912 H   0  0  0  0  0  0  0  0  0  0  0  0
   19.5150   -3.1748    1.4381 H   0  0  0  0  0  0  0  0  0  0  0  0
   20.5714   -3.9411   -0.9039 H   0  0  0  0  0  0  0  0  0  0  0  0
  1  2  1  0
  2  3  1  0
  3  4  1  0
  3  5  1  0
  5  6  1  0
  6  7  1  0
  7  8  1  0
  8  9  2  0
  8 10  1  0
 10 11  1  0
 11 12  1  0
 12 13  1  0
 13 14  1  0
 14 15  1  0
 15 16  1  0
 16 17  1  0
 16 18  1  0
 18 19  2  0
 18 20  1  0
 20 21  1  0
 21 22  1  0
 21 23  1  0
 23 24  1  0
 24 25  2  0
 25 26  1  0
 26 27  2  0
 27 28  1  0
 28 29  2  0
 23 30  1  0
 15 31  1  0
 31 32  1  0
  6 33  1  0
 33 34  1  0
  5 35  1  0
 35 36  1  0
 35 37  1  0
 37 38  2  0
 37 39  1  0
 39 40  1  0
 40 41  1  0
 40 42  1  0
 39 43  1  0
 43 44  1  0
 44 45  2  0
 44 46  1  0
 46 47  1  0
 47 48  1  0
 47 49  1  0
 46 50  1  0
 50 51  1  0
 50 52  1  0
 52 53  2  0
 52 54  1  0
 54 55  1  0
 55 56  1  0
 56 57  1  0
 57 58  2  0
 58 59  1  0
 59 60  2  0
 60 61  1  0
 59 62  1  0
 62 63  1  0
 63 64  2  0
 63 65  1  0
 65 66  1  0
 66 67  1  0
 67 68  1  0
 68 69  1  0
 69 70  1  0
 70 71  2  0
 70 72  1  0
 65 73  1  0
 73 74  1  0
 74 75  2  0
 74 76  1  0
 76 77  1  0
 77 78  1  0
 77 79  1  0
 76 80  1  0
 80 81  1  0
 81 82  2  0
 81 83  1  0
 83 84  1  0
 84 85  1  0
 85 86  1  0
 86 87  1  0
 87 88  1  0
 88 89  1  0
 89 90  2  0
 89 91  1  0
 91 92  2  0
 92 93  1  0
 93 94  2  0
 14 10  1  0
 29 24  1  0
 61 56  2  0
 93 88  1  0
  1 95  1  0
  1 96  1  0
  1 97  1  0
  2 98  1  0
  2 99  1  0
  3100  1  1
  4101  1  0
  4102  1  0
  4103  1  0
  5104  1  1
  6105  1  1
  7106  1  0
  7107  1  0
 11108  1  0
 11109  1  0
 12110  1  0
 12111  1  0
 13112  1  0
 13113  1  0
 14114  1  6
 15115  1  6
 16116  1  6
 17117  1  0
 17118  1  0
 17119  1  0
 20120  1  0
 21121  1  6
 22122  1  0
 22123  1  0
 22124  1  0
 23125  1  1
 25126  1  0
 26127  1  0
 27128  1  0
 28129  1  0
 29130  1  0
 30131  1  0
 32132  1  0
 32133  1  0
 32134  1  0
 34135  1  0
 34136  1  0
 34137  1  0
 36138  1  0
 36139  1  0
 36140  1  0
 39141  1  6
 40142  1  0
 41143  1  0
 41144  1  0
 41145  1  0
 42146  1  0
 42147  1  0
 42148  1  0
 43149  1  0
 46150  1  6
 47151  1  0
 48152  1  0
 48153  1  0
 48154  1  0
 49155  1  0
 49156  1  0
 49157  1  0
 51158  1  0
 51159  1  0
 51160  1  0
 55161  1  0
 55162  1  0
 57163  1  0
 58164  1  0
 60165  1  0
 61166  1  0
 62167  1  0
 65168  1  1
 66169  1  0
 66170  1  0
 67171  1  0
 67172  1  0
 68173  1  0
 68174  1  0
 69175  1  0
 72176  1  0
 72177  1  0
 73178  1  0
 76179  1  6
 77180  1  0
 78181  1  0
 78182  1  0
 78183  1  0
 79184  1  0
 79185  1  0
 79186  1  0
 80187  1  0
 83188  1  0
 83189  1  0
 84190  1  0
 84191  1  0
 85192  1  0
 85193  1  0
 86194  1  0
 86195  1  0
 87196  1  0
 87197  1  0
 91198  1  0
 92199  1  0
M  END
$$$$

     RDKit          3D

199202  0  0  0  0  0  0  0  0999 V2000
   -4.6570    0.1364    4.3425 C   0  0  0  0  0  0  0  0  0  0  0  0
   -5.9135   -0.5804    3.8869 C   0  0  0  0  0  0  0  0  0  0  0  0
   -6.0021   -1.0279    2.4091 C   0  0  2  0  0  0  0  0  0  0  0  0
   -4.8757   -2.0030    2.0483 C   0  0  0  0  0  0  0  0  0  0  0  0
   -6.2743    0.0266    1.2732 C   0  0  1  0  0  0  0  0  0  0  0  0
   -7.3324    1.1444    1.5717 C   0  0  1  0  0  0  0  0  0  0  0  0
   -8.6955    0.5274    1.9459 C   0  0  0  0  0  0  0  0  0  0  0  0
   -9.8903    1.3591    1.4895 C   0  0  0  0  0  0  0  0  0  0  0  0
   -9.7685    2.3612    0.7903 O   0  0  0  0  0  0  0  0  0  0  0  0
  -11.1418    0.9274    1.9046 N   0  0  0  0  0  0  0  0  0  0  0  0
  -12.2159    1.9093    2.0105 C   0  0  0  0  0  0  0  0  0  0  0  0
  -13.2845    1.2471    2.8712 C   0  0  0  0  0  0  0  0  0  0  0  0
  -12.5109    0.1747    3.6356 C   0  0  0  0  0  0  0  0  0  0  0  0
  -11.4815   -0.3164    2.6066 C   0  0  1  0  0  0  0  0  0  0  0  0
  -12.1145   -1.4148    1.6856 C   0  0  1  0  0  0  0  0  0  0  0  0
  -11.2983   -1.6877    0.3926 C   0  0  1  0  0  0  0  0  0  0  0  0
  -10.5344   -3.0073    0.3824 C   0  0  0  0  0  0  0  0  0  0  0  0
  -12.2344   -1.5824   -0.8094 C   0  0  0  0  0  0  0  0  0  0  0  0
  -12.5738   -2.5453   -1.4900 O   0  0  0  0  0  0  0  0  0  0  0  0
  -12.6728   -0.2929   -1.0503 N   0  0  0  0  0  0  0  0  0  0  0  0
  -13.4594    0.0307   -2.2505 C   0  0  2  0  0  0  0  0  0  0  0  0
  -13.5623    1.5511   -2.4017 C   0  0  0  0  0  0  0  0  0  0  0  0
  -14.8511   -0.6738   -2.3319 C   0  0  1  0  0  0  0  0  0  0  0  0
  -15.8816   -0.1897   -1.3294 C   0  0  0  0  0  0  0  0  0  0  0  0
  -15.9670   -0.7959   -0.0655 C   0  0  0  0  0  0  0  0  0  0  0  0
  -16.9118   -0.3693    0.8679 C   0  0  0  0  0  0  0  0  0  0  0  0
  -17.7856    0.6706    0.5568 C   0  0  0  0  0  0  0  0  0  0  0  0
  -17.7111    1.2844   -0.6937 C   0  0  0  0  0  0  0  0  0  0  0  0
  -16.7689    0.8567   -1.6280 C   0  0  0  0  0  0  0  0  0  0  0  0
  -15.3801   -0.5296   -3.6605 O   0  0  0  0  0  0  0  0  0  0  0  0
  -12.2457   -2.6005    2.4941 O   0  0  0  0  0  0  0  0  0  0  0  0
  -13.3846   -3.3867    2.1638 C   0  0  0  0  0  0  0  0  0  0  0  0
   -6.8506    1.9812    2.6393 O   0  0  0  0  0  0  0  0  0  0  0  0
   -7.4611    3.2649    2.6883 C   0  0  0  0  0  0  0  0  0  0  0  0
   -5.0686    0.5411    0.5404 N   0  0  0  0  0  0  0  0  0  0  0  0
   -4.1678    1.4278    1.2528 C   0  0  0  0  0  0  0  0  0  0  0  0
   -4.8419    0.0655   -0.7563 C   0  0  0  0  0  0  0  0  0  0  0  0
   -5.6985   -0.6300   -1.3284 O   0  0  0  0  0  0  0  0  0  0  0  0
   -3.6023    0.4964   -1.6172 C   0  0  1  0  0  0  0  0  0  0  0  0
   -3.9164    1.7292   -2.5240 C   0  0  0  0  0  0  0  0  0  0  0  0
   -5.0488    1.4490   -3.5212 C   0  0  0  0  0  0  0  0  0  0  0  0
   -4.2222    3.0185   -1.7583 C   0  0  0  0  0  0  0  0  0  0  0  0
   -2.3052    0.6628   -0.9523 N   0  0  0  0  0  0  0  0  0  0  0  0
   -1.6929   -0.3988   -0.3181 C   0  0  0  0  0  0  0  0  0  0  0  0
   -2.2668   -1.4631   -0.1051 O   0  0  0  0  0  0  0  0  0  0  0  0
   -0.1985   -0.1654    0.0125 C   0  0  1  0  0  0  0  0  0  0  0  0
    0.1971   -0.7250    1.4023 C   0  0  0  0  0  0  0  0  0  0  0  0
    1.6906   -0.5069    1.6871 C   0  0  0  0  0  0  0  0  0  0  0  0
   -0.6218   -0.0540    2.5174 C   0  0  0  0  0  0  0  0  0  0  0  0
    0.6087   -0.7534   -1.0850 N   0  0  0  0  0  0  0  0  0  0  0  0
    0.3776   -2.1464   -1.4540 C   0  0  0  0  0  0  0  0  0  0  0  0
    1.4010    0.0078   -1.9300 C   0  0  0  0  0  0  0  0  0  0  0  0
    1.8690   -0.4076   -2.9847 O   0  0  0  0  0  0  0  0  0  0  0  0
    1.6106    1.2673   -1.4617 O   0  0  0  0  0  0  0  0  0  0  0  0
    2.4822    2.0797   -2.2605 C   0  0  0  0  0  0  0  0  0  0  0  0
    3.9442    1.7678   -2.0282 C   0  0  0  0  0  0  0  0  0  0  0  0
    4.4542    1.6055   -0.7364 C   0  0  0  0  0  0  0  0  0  0  0  0
    5.8132    1.3157   -0.5330 C   0  0  0  0  0  0  0  0  0  0  0  0
    6.6839    1.1943   -1.6158 C   0  0  0  0  0  0  0  0  0  0  0  0
    6.1807    1.3881   -2.9046 C   0  0  0  0  0  0  0  0  0  0  0  0
    4.8268    1.6749   -3.1094 C   0  0  0  0  0  0  0  0  0  0  0  0
    8.0438    0.8432   -1.4995 N   0  0  0  0  0  0  0  0  0  0  0  0
    8.7702    0.5983   -0.3446 C   0  0  0  0  0  0  0  0  0  0  0  0
    8.3699    0.7607    0.8049 O   0  0  0  0  0  0  0  0  0  0  0  0
   10.1137   -0.1292   -0.6154 C   0  0  1  0  0  0  0  0  0  0  0  0
    9.8866   -1.6534   -0.5837 C   0  0  0  0  0  0  0  0  0  0  0  0
    9.3645   -2.2374    0.7359 C   0  0  0  0  0  0  0  0  0  0  0  0
   10.2489   -1.9890    1.9554 C   0  0  0  0  0  0  0  0  0  0  0  0
   11.5867   -2.5249    1.8202 N   0  0  0  0  0  0  0  0  0  0  0  0
   11.8291   -3.8664    1.8896 C   0  0  0  0  0  0  0  0  0  0  0  0
   10.9982   -4.7382    2.0937 O   0  0  0  0  0  0  0  0  0  0  0  0
   13.1392   -4.1601    1.6995 N   0  0  0  0  0  0  0  0  0  0  0  0
   10.6890    0.2233   -1.9268 N   0  0  0  0  0  0  0  0  0  0  0  0
   11.3596    1.4321   -2.0810 C   0  0  0  0  0  0  0  0  0  0  0  0
   11.3634    2.3072   -1.2180 O   0  0  0  0  0  0  0  0  0  0  0  0
   12.2025    1.5020   -3.3734 C   0  0  1  0  0  0  0  0  0  0  0  0
   11.8418    2.6684   -4.3131 C   0  0  0  0  0  0  0  0  0  0  0  0
   10.3947    2.5572   -4.8038 C   0  0  0  0  0  0  0  0  0  0  0  0
   12.0915    4.0626   -3.7353 C   0  0  0  0  0  0  0  0  0  0  0  0
   13.6061    1.5217   -2.9755 N   0  0  0  0  0  0  0  0  0  0  0  0
   14.2241    0.3565   -2.5658 C   0  0  0  0  0  0  0  0  0  0  0  0
   13.6589   -0.7317   -2.5854 O   0  0  0  0  0  0  0  0  0  0  0  0
   15.6500    0.5860   -2.0995 C   0  0  0  0  0  0  0  0  0  0  0  0
   16.3391   -0.6709   -1.5694 C   0  0  0  0  0  0  0  0  0  0  0  0
   15.8191   -1.0861   -0.1904 C   0  0  0  0  0  0  0  0  0  0  0  0
   16.5042   -2.3429    0.3526 C   0  0  0  0  0  0  0  0  0  0  0  0
   17.9831   -2.1719    0.7163 C   0  0  0  0  0  0  0  0  0  0  0  0
   18.1964   -1.2062    1.7755 N   0  0  0  0  0  0  0  0  0  0  0  0
   17.8845   -1.4128    3.0796 C   0  0  0  0  0  0  0  0  0  0  0  0
   17.3790   -2.3890    3.6029 O   0  0  0  0  0  0  0  0  0  0  0  0
   18.2455   -0.1922    3.8085 C   0  0  0  0  0  0  0  0  0  0  0  0
   18.7324    0.6801    2.9244 C   0  0  0  0  0  0  0  0  0  0  0  0
   18.6938    0.0450    1.6017 C   0  0  0  0  0  0  0  0  0  0  0  0
   19.0384    0.5975    0.5738 O   0  0  0  0  0  0  0  0  0  0  0  0
   -3.7518   -0.4207    4.0865 H   0  0  0  0  0  0  0  0  0  0  0  0
   -4.6742    0.2467    5.4319 H   0  0  0  0  0  0  0  0  0  0  0  0
   -4.5958    1.1455    3.9268 H   0  0  0  0  0  0  0  0  0  0  0  0
   -6.0041   -1.4857    4.5056 H   0  0  0  0  0  0  0  0  0  0  0  0
   -6.7860    0.0245    4.1563 H   0  0  0  0  0  0  0  0  0  0  0  0
   -6.9121   -1.6550    2.4066 H   0  0  0  0  0  0  0  0  0  0  0  0
   -5.0486   -2.4524    1.0663 H   0  0  0  0  0  0  0  0  0  0  0  0
   -3.8988   -1.5136    2.0309 H   0  0  0  0  0  0  0  0  0  0  0  0
   -4.8216   -2.8219    2.7761 H   0  0  0  0  0  0  0  0  0  0  0  0
   -6.8004   -0.5929    0.5329 H   0  0  0  0  0  0  0  0  0  0  0  0
   -7.4120    1.7476    0.6570 H   0  0  0  0  0  0  0  0  0  0  0  0
   -8.7599    0.4225    3.0340 H   0  0  0  0  0  0  0  0  0  0  0  0
   -8.8043   -0.4599    1.4866 H   0  0  0  0  0  0  0  0  0  0  0  0
  -11.8216    2.8102    2.4989 H   0  0  0  0  0  0  0  0  0  0  0  0
  -12.5805    2.1782    1.0130 H   0  0  0  0  0  0  0  0  0  0  0  0
  -13.7781    1.9609    3.5367 H   0  0  0  0  0  0  0  0  0  0  0  0
  -14.0564    0.7960    2.2356 H   0  0  0  0  0  0  0  0  0  0  0  0
  -13.1579   -0.6121    4.0277 H   0  0  0  0  0  0  0  0  0  0  0  0
  -11.9932    0.6420    4.4823 H   0  0  0  0  0  0  0  0  0  0  0  0
  -10.6159   -0.7393    3.1238 H   0  0  0  0  0  0  0  0  0  0  0  0
  -13.1219   -1.0712    1.4183 H   0  0  0  0  0  0  0  0  0  0  0  0
  -10.5543   -0.9063    0.2226 H   0  0  0  0  0  0  0  0  0  0  0  0
   -9.8566   -3.0775    1.2383 H   0  0  0  0  0  0  0  0  0  0  0  0
  -11.1985   -3.8759    0.3898 H   0  0  0  0  0  0  0  0  0  0  0  0
   -9.9290   -3.0917   -0.5270 H   0  0  0  0  0  0  0  0  0  0  0  0
  -12.0717    0.4463   -0.7022 H   0  0  0  0  0  0  0  0  0  0  0  0
  -12.8645   -0.3276   -3.1015 H   0  0  0  0  0  0  0  0  0  0  0  0
  -14.0160    2.0147   -1.5189 H   0  0  0  0  0  0  0  0  0  0  0  0
  -12.5651    1.9944   -2.5156 H   0  0  0  0  0  0  0  0  0  0  0  0
  -14.1490    1.8284   -3.2829 H   0  0  0  0  0  0  0  0  0  0  0  0
  -14.7428   -1.7538   -2.1865 H   0  0  0  0  0  0  0  0  0  0  0  0
  -15.3008   -1.6174    0.1870 H   0  0  0  0  0  0  0  0  0  0  0  0
  -16.9729   -0.8532    1.8402 H   0  0  0  0  0  0  0  0  0  0  0  0
  -18.5297    0.9979    1.2788 H   0  0  0  0  0  0  0  0  0  0  0  0
  -18.3933    2.0950   -0.9428 H   0  0  0  0  0  0  0  0  0  0  0  0
  -16.7350    1.3382   -2.6077 H   0  0  0  0  0  0  0  0  0  0  0  0
  -14.8887   -1.1613   -4.2160 H   0  0  0  0  0  0  0  0  0  0  0  0
  -13.4031   -3.6278    1.0977 H   0  0  0  0  0  0  0  0  0  0  0  0
  -14.2974   -2.8536    2.4447 H   0  0  0  0  0  0  0  0  0  0  0  0
  -13.3321   -4.3167    2.7328 H   0  0  0  0  0  0  0  0  0  0  0  0
   -6.8892    3.8795    3.3869 H   0  0  0  0  0  0  0  0  0  0  0  0
   -7.4397    3.7489    1.7071 H   0  0  0  0  0  0  0  0  0  0  0  0
   -8.4830    3.1884    3.0652 H   0  0  0  0  0  0  0  0  0  0  0  0
   -4.7218    2.2275    1.7358 H   0  0  0  0  0  0  0  0  0  0  0  0
   -3.6100    0.8530    1.9863 H   0  0  0  0  0  0  0  0  0  0  0  0
   -3.4562    1.9227    0.6033 H   0  0  0  0  0  0  0  0  0  0  0  0
   -3.4352   -0.3599   -2.2891 H   0  0  0  0  0  0  0  0  0  0  0  0
   -3.0188    1.9279   -3.1291 H   0  0  0  0  0  0  0  0  0  0  0  0
   -6.0078    1.3015   -3.0163 H   0  0  0  0  0  0  0  0  0  0  0  0
   -5.1712    2.2948   -4.2062 H   0  0  0  0  0  0  0  0  0  0  0  0
   -4.8330    0.5639   -4.1237 H   0  0  0  0  0  0  0  0  0  0  0  0
   -4.4133    3.8436   -2.4517 H   0  0  0  0  0  0  0  0  0  0  0  0
   -3.3772    3.3176   -1.1321 H   0  0  0  0  0  0  0  0  0  0  0  0
   -5.1079    2.9126   -1.1269 H   0  0  0  0  0  0  0  0  0  0  0  0
   -1.7138    1.4218   -1.2744 H   0  0  0  0  0  0  0  0  0  0  0  0
   -0.0381    0.9182    0.0413 H   0  0  0  0  0  0  0  0  0  0  0  0
   -0.0031   -1.8043    1.4540 H   0  0  0  0  0  0  0  0  0  0  0  0
    2.3090   -1.0663    0.9789 H   0  0  0  0  0  0  0  0  0  0  0  0
    1.9547    0.5535    1.6154 H   0  0  0  0  0  0  0  0  0  0  0  0
    1.9504   -0.8532    2.6956 H   0  0  0  0  0  0  0  0  0  0  0  0
   -1.6772   -0.3329    2.4452 H   0  0  0  0  0  0  0  0  0  0  0  0
   -0.2724   -0.3691    3.5085 H   0  0  0  0  0  0  0  0  0  0  0  0
   -0.5507    1.0384    2.4652 H   0  0  0  0  0  0  0  0  0  0  0  0
    1.2298   -2.5474   -2.0121 H   0  0  0  0  0  0  0  0  0  0  0  0
   -0.5100   -2.2079   -2.0893 H   0  0  0  0  0  0  0  0  0  0  0  0
    0.2390   -2.7571   -0.5578 H   0  0  0  0  0  0  0  0  0  0  0  0
    2.2102    1.9949   -3.3191 H   0  0  0  0  0  0  0  0  0  0  0  0
    2.2992    3.1236   -1.9790 H   0  0  0  0  0  0  0  0  0  0  0  0
    3.8017    1.6997    0.1302 H   0  0  0  0  0  0  0  0  0  0  0  0
    6.1592    1.1964    0.4921 H   0  0  0  0  0  0  0  0  0  0  0  0
    6.8300    1.3230   -3.7698 H   0  0  0  0  0  0  0  0  0  0  0  0
    4.4626    1.8139   -4.1259 H   0  0  0  0  0  0  0  0  0  0  0  0
    8.5700    0.7447   -2.3562 H   0  0  0  0  0  0  0  0  0  0  0  0
   10.8317    0.1785    0.1559 H   0  0  0  0  0  0  0  0  0  0  0  0
   10.8245   -2.1612   -0.8435 H   0  0  0  0  0  0  0  0  0  0  0  0
    9.1747   -1.9256   -1.3737 H   0  0  0  0  0  0  0  0  0  0  0  0
    9.2345   -3.3177    0.5945 H   0  0  0  0  0  0  0  0  0  0  0  0
    8.3605   -1.8494    0.9435 H   0  0  0  0  0  0  0  0  0  0  0  0
   10.3475   -0.9214    2.1668 H   0  0  0  0  0  0  0  0  0  0  0  0
    9.7857   -2.4552    2.8324 H   0  0  0  0  0  0  0  0  0  0  0  0
   12.2828   -1.9814    1.3288 H   0  0  0  0  0  0  0  0  0  0  0  0
   13.3329   -5.1408    1.8656 H   0  0  0  0  0  0  0  0  0  0  0  0
   13.7916   -3.5419    2.1647 H   0  0  0  0  0  0  0  0  0  0  0  0
   11.1923   -0.5389   -2.3794 H   0  0  0  0  0  0  0  0  0  0  0  0
   12.0476    0.5746   -3.9406 H   0  0  0  0  0  0  0  0  0  0  0  0
   12.4873    2.5791   -5.1985 H   0  0  0  0  0  0  0  0  0  0  0  0
   10.2086    1.5769   -5.2513 H   0  0  0  0  0  0  0  0  0  0  0  0
   10.1838    3.3143   -5.5672 H   0  0  0  0  0  0  0  0  0  0  0  0
    9.6810    2.6984   -3.9861 H   0  0  0  0  0  0  0  0  0  0  0  0
   11.8938    4.8285   -4.4929 H   0  0  0  0  0  0  0  0  0  0  0  0
   13.1294    4.1888   -3.4138 H   0  0  0  0  0  0  0  0  0  0  0  0
   11.4380    4.2726   -2.8826 H   0  0  0  0  0  0  0  0  0  0  0  0
   13.9552    2.3817   -2.5694 H   0  0  0  0  0  0  0  0  0  0  0  0
   16.2133    0.9510   -2.9684 H   0  0  0  0  0  0  0  0  0  0  0  0
   15.6588    1.3742   -1.3368 H   0  0  0  0  0  0  0  0  0  0  0  0
   16.2165   -1.4966   -2.2798 H   0  0  0  0  0  0  0  0  0  0  0  0
   17.4128   -0.4611   -1.5086 H   0  0  0  0  0  0  0  0  0  0  0  0
   14.7442   -1.2911   -0.2562 H   0  0  0  0  0  0  0  0  0  0  0  0
   15.9307   -0.2576    0.5167 H   0  0  0  0  0  0  0  0  0  0  0  0
   15.9515   -2.6710    1.2427 H   0  0  0  0  0  0  0  0  0  0  0  0
   16.4132   -3.1516   -0.3826 H   0  0  0  0  0  0  0  0  0  0  0  0
   18.5725   -1.8874   -0.1593 H   0  0  0  0  0  0  0  0  0  0  0  0
   18.3640   -3.1368    1.0745 H   0  0  0  0  0  0  0  0  0  0  0  0
   18.1128   -0.0715    4.8695 H   0  0  0  0  0  0  0  0  0  0  0  0
   19.0925    1.6798    3.0906 H   0  0  0  0  0  0  0  0  0  0  0  0
  1  2  1  0
  2  3  1  0
  3  4  1  0
  3  5  1  0
  5  6  1  0
  6  7  1  0
  7  8  1  0
  8  9  2  0
  8 10  1  0
 10 11  1  0
 11 12  1  0
 12 13  1  0
 13 14  1  0
 14 15  1  0
 15 16  1  0
 16 17  1  0
 16 18  1  0
 18 19  2  0
 18 20  1  0
 20 21  1  0
 21 22  1  0
 21 23  1  0
 23 24  1  0
 24 25  2  0
 25 26  1  0
 26 27  2  0
 27 28  1  0
 28 29  2  0
 23 30  1  0
 15 31  1  0
 31 32  1  0
  6 33  1  0
 33 34  1  0
  5 35  1  0
 35 36  1  0
 35 37  1  0
 37 38  2  0
 37 39  1  0
 39 40  1  0
 40 41  1  0
 40 42  1  0
 39 43  1  0
 43 44  1  0
 44 45  2  0
 44 46  1  0
 46 47  1  0
 47 48  1  0
 47 49  1  0
 46 50  1  0
 50 51  1  0
 50 52  1  0
 52 53  2  0
 52 54  1  0
 54 55  1  0
 55 56  1  0
 56 57  1  0
 57 58  2  0
 58 59  1  0
 59 60  2  0
 60 61  1  0
 59 62  1  0
 62 63  1  0
 63 64  2  0
 63 65  1  0
 65 66  1  0
 66 67  1  0
 67 68  1  0
 68 69  1  0
 69 70  1  0
 70 71  2  0
 70 72  1  0
 65 73  1  0
 73 74  1  0
 74 75  2  0
 74 76  1  0
 76 77  1  0
 77 78  1  0
 77 79  1  0
 76 80  1  0
 80 81  1  0
 81 82  2  0
 81 83  1  0
 83 84  1  0
 84 85  1  0
 85 86  1  0
 86 87  1  0
 87 88  1  0
 88 89  1  0
 89 90  2  0
 89 91  1  0
 91 92  2  0
 92 93  1  0
 93 94  2  0
 14 10  1  0
 29 24  1  0
 61 56  2  0
 93 88  1  0
  1 95  1  0
  1 96  1  0
  1 97  1  0
  2 98  1  0
  2 99  1  0
  3100  1  1
  4101  1  0
  4102  1  0
  4103  1  0
  5104  1  6
  6105  1  6
  7106  1  0
  7107  1  0
 11108  1  0
 11109  1  0
 12110  1  0
 12111  1  0
 13112  1  0
 13113  1  0
 14114  1  1
 15115  1  6
 16116  1  6
 17117  1  0
 17118  1  0
 17119  1  0
 20120  1  0
 21121  1  6
 22122  1  0
 22123  1  0
 22124  1  0
 23125  1  1
 25126  1  0
 26127  1  0
 27128  1  0
 28129  1  0
 29130  1  0
 30131  1  0
 32132  1  0
 32133  1  0
 32134  1  0
 34135  1  0
 34136  1  0
 34137  1  0
 36138  1  0
 36139  1  0
 36140  1  0
 39141  1  6
 40142  1  0
 41143  1  0
 41144  1  0
 41145  1  0
 42146  1  0
 42147  1  0
 42148  1  0
 43149  1  0
 46150  1  1
 47151  1  0
 48152  1  0
 48153  1  0
 48154  1  0
 49155  1  0
 49156  1  0
 49157  1  0
 51158  1  0
 51159  1  0
 51160  1  0
 55161  1  0
 55162  1  0
 57163  1  0
 58164  1  0
 60165  1  0
 61166  1  0
 62167  1  0
 65168  1  1
 66169  1  0
 66170  1  0
 67171  1  0
 67172  1  0
 68173  1  0
 68174  1  0
 69175  1  0
 72176  1  0
 72177  1  0
 73178  1  0
 76179  1  6
 77180  1  0
 78181  1  0
 78182  1  0
 78183  1  0
 79184  1  0
 79185  1  0
 79186  1  0
 80187  1  0
 83188  1  0
 83189  1  0
 84190  1  0
 84191  1  0
 85192  1  0
 85193  1  0
 86194  1  0
 86195  1  0
 87196  1  0
 87197  1  0
 91198  1  0
 92199  1  0
M  END
$$$$

     RDKit          3D

199202  0  0  0  0  0  0  0  0999 V2000
    5.6581    4.1204   -1.9380 C   0  0  0  0  0  0  0  0  0  0  0  0
    5.3255    2.6904   -2.3376 C   0  0  0  0  0  0  0  0  0  0  0  0
    6.4127    1.6379   -2.0277 C   0  0  2  0  0  0  0  0  0  0  0  0
    6.3715    0.5417   -3.1114 C   0  0  0  0  0  0  0  0  0  0  0  0
    6.4828    0.9836   -0.5972 C   0  0  1  0  0  0  0  0  0  0  0  0
    6.9139    1.9006    0.6004 C   0  0  1  0  0  0  0  0  0  0  0  0
    8.1225    2.8031    0.3004 C   0  0  0  0  0  0  0  0  0  0  0  0
    9.3629    2.0516   -0.1463 C   0  0  0  0  0  0  0  0  0  0  0  0
    9.5911    0.9057    0.2392 O   0  0  0  0  0  0  0  0  0  0  0  0
   10.2408    2.7425   -0.9589 N   0  0  0  0  0  0  0  0  0  0  0  0
   10.0107    4.0555   -1.5470 C   0  0  0  0  0  0  0  0  0  0  0  0
   11.2975    4.4029   -2.2650 C   0  0  0  0  0  0  0  0  0  0  0  0
   11.8266    3.0386   -2.6851 C   0  0  0  0  0  0  0  0  0  0  0  0
   11.4460    2.1053   -1.5195 C   0  0  1  0  0  0  0  0  0  0  0  0
   12.5853    1.9072   -0.4704 C   0  0  1  0  0  0  0  0  0  0  0  0
   13.7375    1.0640   -1.0746 C   0  0  1  0  0  0  0  0  0  0  0  0
   15.1281    1.4179   -0.5346 C   0  0  0  0  0  0  0  0  0  0  0  0
   13.4326   -0.4173   -0.8943 C   0  0  0  0  0  0  0  0  0  0  0  0
   12.9690   -1.0868   -1.8169 O   0  0  0  0  0  0  0  0  0  0  0  0
   13.6668   -0.9242    0.3582 N   0  0  0  0  0  0  0  0  0  0  0  0
   13.4376   -2.3268    0.7146 C   0  0  2  0  0  0  0  0  0  0  0  0
   12.2075   -2.3987    1.6225 C   0  0  0  0  0  0  0  0  0  0  0  0
   14.6792   -2.9401    1.4178 C   0  0  1  0  0  0  0  0  0  0  0  0
   15.8552   -3.1594    0.4819 C   0  0  0  0  0  0  0  0  0  0  0  0
   16.0077   -4.3935   -0.1686 C   0  0  0  0  0  0  0  0  0  0  0  0
   17.0717   -4.6100   -1.0478 C   0  0  0  0  0  0  0  0  0  0  0  0
   17.9929   -3.5939   -1.2915 C   0  0  0  0  0  0  0  0  0  0  0  0
   17.8524   -2.3611   -0.6581 C   0  0  0  0  0  0  0  0  0  0  0  0
   16.7916   -2.1454    0.2231 C   0  0  0  0  0  0  0  0  0  0  0  0
   15.0704   -2.1223    2.5309 O   0  0  0  0  0  0  0  0  0  0  0  0
   13.1114    3.1775   -0.0431 O   0  0  0  0  0  0  0  0  0  0  0  0
   12.6132    3.5894    1.2229 C   0  0  0  0  0  0  0  0  0  0  0  0
    5.8069    2.7261    0.9993 O   0  0  0  0  0  0  0  0  0  0  0  0
    5.8527    3.1011    2.3726 C   0  0  0  0  0  0  0  0  0  0  0  0
    5.3594    0.0780   -0.1958 N   0  0  0  0  0  0  0  0  0  0  0  0
    5.6221   -1.3459   -0.3197 C   0  0  0  0  0  0  0  0  0  0  0  0
    4.0321    0.4170   -0.4586 C   0  0  0  0  0  0  0  0  0  0  0  0
    3.4908    0.1385   -1.5281 O   0  0  0  0  0  0  0  0  0  0  0  0
    3.2218    0.9152    0.7595 C   0  0  1  0  0  0  0  0  0  0  0  0
    2.5998    2.3168    0.5215 C   0  0  0  0  0  0  0  0  0  0  0  0
    1.4830    2.3465   -0.5306 C   0  0  0  0  0  0  0  0  0  0  0  0
    2.0639    2.9264    1.8217 C   0  0  0  0  0  0  0  0  0  0  0  0
    2.2025   -0.1056    1.0086 N   0  0  0  0  0  0  0  0  0  0  0  0
    1.7126   -0.4039    2.2613 C   0  0  0  0  0  0  0  0  0  0  0  0
    2.1483    0.1126    3.2874 O   0  0  0  0  0  0  0  0  0  0  0  0
    0.5140   -1.3871    2.2451 C   0  0  1  0  0  0  0  0  0  0  0  0
    0.1921   -1.9859    3.6380 C   0  0  0  0  0  0  0  0  0  0  0  0
   -1.0823   -2.8424    3.6049 C   0  0  0  0  0  0  0  0  0  0  0  0
    1.3484   -2.8656    4.1387 C   0  0  0  0  0  0  0  0  0  0  0  0
   -0.6160   -0.6497    1.6337 N   0  0  0  0  0  0  0  0  0  0  0  0
   -1.2656    0.4195    2.3866 C   0  0  0  0  0  0  0  0  0  0  0  0
   -0.8537   -0.8036    0.2781 C   0  0  0  0  0  0  0  0  0  0  0  0
   -0.1840   -1.5381   -0.4402 O   0  0  0  0  0  0  0  0  0  0  0  0
   -1.8934   -0.0514   -0.1567 O   0  0  0  0  0  0  0  0  0  0  0  0
   -2.1921   -0.1169   -1.5567 C   0  0  0  0  0  0  0  0  0  0  0  0
   -3.6771   -0.3231   -1.7249 C   0  0  0  0  0  0  0  0  0  0  0  0
   -4.3049   -1.4342   -1.1439 C   0  0  0  0  0  0  0  0  0  0  0  0
   -5.6829   -1.6350   -1.2848 C   0  0  0  0  0  0  0  0  0  0  0  0
   -6.4557   -0.7367   -2.0181 C   0  0  0  0  0  0  0  0  0  0  0  0
   -5.8260    0.3526   -2.6331 C   0  0  0  0  0  0  0  0  0  0  0  0
   -4.4491    0.5617   -2.4855 C   0  0  0  0  0  0  0  0  0  0  0  0
   -7.8539   -0.8500   -2.1735 N   0  0  0  0  0  0  0  0  0  0  0  0
   -8.7082   -1.7017   -1.4920 C   0  0  0  0  0  0  0  0  0  0  0  0
   -8.3789   -2.5377   -0.6471 O   0  0  0  0  0  0  0  0  0  0  0  0
  -10.1963   -1.4695   -1.8626 C   0  0  1  0  0  0  0  0  0  0  0  0
  -10.5624   -1.7813   -3.3220 C   0  0  0  0  0  0  0  0  0  0  0  0
  -10.1259   -3.1180   -3.9353 C   0  0  0  0  0  0  0  0  0  0  0  0
  -10.6911   -4.3799   -3.2783 C   0  0  0  0  0  0  0  0  0  0  0  0
   -9.9680   -4.7577   -2.0814 N   0  0  0  0  0  0  0  0  0  0  0  0
   -8.6916   -5.2441   -2.1915 C   0  0  0  0  0  0  0  0  0  0  0  0
   -8.0678   -5.4275   -3.2261 O   0  0  0  0  0  0  0  0  0  0  0  0
   -8.1406   -5.4697   -0.9730 N   0  0  0  0  0  0  0  0  0  0  0  0
  -11.0727   -2.1626   -0.9250 N   0  0  0  0  0  0  0  0  0  0  0  0
  -11.4572   -1.5420    0.2449 C   0  0  0  0  0  0  0  0  0  0  0  0
  -11.1465   -0.3790    0.5126 O   0  0  0  0  0  0  0  0  0  0  0  0
  -12.3247   -2.3950    1.2019 C   0  0  1  0  0  0  0  0  0  0  0  0
  -11.5245   -3.2835    2.1771 C   0  0  0  0  0  0  0  0  0  0  0  0
  -10.4305   -2.5318    2.9429 C   0  0  0  0  0  0  0  0  0  0  0  0
  -10.9226   -4.5068    1.4858 C   0  0  0  0  0  0  0  0  0  0  0  0
  -13.1491   -1.4415    1.9521 N   0  0  0  0  0  0  0  0  0  0  0  0
  -14.3364   -0.9821    1.4129 C   0  0  0  0  0  0  0  0  0  0  0  0
  -14.8856   -1.4954    0.4452 O   0  0  0  0  0  0  0  0  0  0  0  0
  -14.8803    0.2198    2.1614 C   0  0  0  0  0  0  0  0  0  0  0  0
  -16.1129    0.8203    1.4898 C   0  0  0  0  0  0  0  0  0  0  0  0
  -16.5887    2.0588    2.2489 C   0  0  0  0  0  0  0  0  0  0  0  0
  -17.8470    2.6968    1.6596 C   0  0  0  0  0  0  0  0  0  0  0  0
  -17.6595    3.1993    0.2259 C   0  0  0  0  0  0  0  0  0  0  0  0
  -18.7554    4.0568   -0.1781 N   0  0  0  0  0  0  0  0  0  0  0  0
  -18.7777    5.4031   -0.0129 C   0  0  0  0  0  0  0  0  0  0  0  0
  -17.9208    6.1357    0.4465 O   0  0  0  0  0  0  0  0  0  0  0  0
  -20.0856    5.8728   -0.4845 C   0  0  0  0  0  0  0  0  0  0  0  0
  -20.7856    4.8052   -0.8674 C   0  0  0  0  0  0  0  0  0  0  0  0
  -19.9482    3.6188   -0.6523 C   0  0  0  0  0  0  0  0  0  0  0  0
  -20.3220    2.4810   -0.8624 O   0  0  0  0  0  0  0  0  0  0  0  0
    4.9066    4.8037   -2.3480 H   0  0  0  0  0  0  0  0  0  0  0  0
    6.6311    4.4289   -2.3334 H   0  0  0  0  0  0  0  0  0  0  0  0
    5.6562    4.2606   -0.8582 H   0  0  0  0  0  0  0  0  0  0  0  0
    4.3579    2.4255   -1.9148 H   0  0  0  0  0  0  0  0  0  0  0  0
    5.1684    2.7194   -3.4258 H   0  0  0  0  0  0  0  0  0  0  0  0
    7.3780    2.1320   -2.1926 H   0  0  0  0  0  0  0  0  0  0  0  0
    6.5585    0.9749   -4.1004 H   0  0  0  0  0  0  0  0  0  0  0  0
    5.4040    0.0355   -3.1538 H   0  0  0  0  0  0  0  0  0  0  0  0
    7.1484   -0.2101   -2.9408 H   0  0  0  0  0  0  0  0  0  0  0  0
    7.3368    0.2955   -0.6867 H   0  0  0  0  0  0  0  0  0  0  0  0
    7.1621    1.2310    1.4354 H   0  0  0  0  0  0  0  0  0  0  0  0
    8.4110    3.3605    1.1993 H   0  0  0  0  0  0  0  0  0  0  0  0
    7.8304    3.5604   -0.4247 H   0  0  0  0  0  0  0  0  0  0  0  0
    9.1825    3.9645   -2.2572 H   0  0  0  0  0  0  0  0  0  0  0  0
    9.7478    4.7857   -0.7773 H   0  0  0  0  0  0  0  0  0  0  0  0
   11.9976    4.8919   -1.5807 H   0  0  0  0  0  0  0  0  0  0  0  0
   11.1345    5.0731   -3.1129 H   0  0  0  0  0  0  0  0  0  0  0  0
   11.3016    2.7160   -3.5927 H   0  0  0  0  0  0  0  0  0  0  0  0
   12.8943    3.0673   -2.9168 H   0  0  0  0  0  0  0  0  0  0  0  0
   11.1524    1.1214   -1.9082 H   0  0  0  0  0  0  0  0  0  0  0  0
   12.1790    1.3772    0.4011 H   0  0  0  0  0  0  0  0  0  0  0  0
   13.7973    1.2230   -2.1585 H   0  0  0  0  0  0  0  0  0  0  0  0
   15.1585    1.4182    0.5610 H   0  0  0  0  0  0  0  0  0  0  0  0
   15.4319    2.4143   -0.8768 H   0  0  0  0  0  0  0  0  0  0  0  0
   15.8784    0.7046   -0.8914 H   0  0  0  0  0  0  0  0  0  0  0  0
   14.0265   -0.3378    1.0999 H   0  0  0  0  0  0  0  0  0  0  0  0
   13.2204   -2.8984   -0.1957 H   0  0  0  0  0  0  0  0  0  0  0  0
   11.9794   -3.4357    1.8896 H   0  0  0  0  0  0  0  0  0  0  0  0
   11.3303   -1.9778    1.1202 H   0  0  0  0  0  0  0  0  0  0  0  0
   12.3579   -1.8320    2.5483 H   0  0  0  0  0  0  0  0  0  0  0  0
   14.4005   -3.9118    1.8457 H   0  0  0  0  0  0  0  0  0  0  0  0
   15.2931   -5.1969   -0.0041 H   0  0  0  0  0  0  0  0  0  0  0  0
   17.1767   -5.5675   -1.5492 H   0  0  0  0  0  0  0  0  0  0  0  0
   18.8166   -3.7622   -1.9815 H   0  0  0  0  0  0  0  0  0  0  0  0
   18.5641   -1.5647   -0.8575 H   0  0  0  0  0  0  0  0  0  0  0  0
   16.6932   -1.1730    0.6998 H   0  0  0  0  0  0  0  0  0  0  0  0
   15.9455   -2.4471    2.8118 H   0  0  0  0  0  0  0  0  0  0  0  0
   12.9236    2.8850    2.0011 H   0  0  0  0  0  0  0  0  0  0  0  0
   13.0392    4.5691    1.4560 H   0  0  0  0  0  0  0  0  0  0  0  0
   11.5242    3.6813    1.2152 H   0  0  0  0  0  0  0  0  0  0  0  0
    6.7643    3.6578    2.6041 H   0  0  0  0  0  0  0  0  0  0  0  0
    4.9981    3.7513    2.5793 H   0  0  0  0  0  0  0  0  0  0  0  0
    5.7794    2.2129    3.0084 H   0  0  0  0  0  0  0  0  0  0  0  0
    6.5201   -1.6012    0.2494 H   0  0  0  0  0  0  0  0  0  0  0  0
    4.7781   -1.9147    0.0860 H   0  0  0  0  0  0  0  0  0  0  0  0
    5.7492   -1.6159   -1.3714 H   0  0  0  0  0  0  0  0  0  0  0  0
    3.8853    0.9474    1.6311 H   0  0  0  0  0  0  0  0  0  0  0  0
    3.3930    2.9824    0.1627 H   0  0  0  0  0  0  0  0  0  0  0  0
    1.8318    2.0018   -1.5068 H   0  0  0  0  0  0  0  0  0  0  0  0
    1.1131    3.3694   -0.6649 H   0  0  0  0  0  0  0  0  0  0  0  0
    0.6295    1.7288   -0.2348 H   0  0  0  0  0  0  0  0  0  0  0  0
    2.8058    2.8705    2.6223 H   0  0  0  0  0  0  0  0  0  0  0  0
    1.1559    2.4190    2.1619 H   0  0  0  0  0  0  0  0  0  0  0  0
    1.8120    3.9827    1.6758 H   0  0  0  0  0  0  0  0  0  0  0  0
    1.7759   -0.5414    0.1915 H   0  0  0  0  0  0  0  0  0  0  0  0
    0.7944   -2.2168    1.5833 H   0  0  0  0  0  0  0  0  0  0  0  0
    0.0435   -1.1824    4.3712 H   0  0  0  0  0  0  0  0  0  0  0  0
   -0.9949   -3.6554    2.8759 H   0  0  0  0  0  0  0  0  0  0  0  0
   -1.2732   -3.2901    4.5871 H   0  0  0  0  0  0  0  0  0  0  0  0
   -1.9622   -2.2473    3.3457 H   0  0  0  0  0  0  0  0  0  0  0  0
    1.5420   -3.6947    3.4489 H   0  0  0  0  0  0  0  0  0  0  0  0
    2.2747   -2.2950    4.2476 H   0  0  0  0  0  0  0  0  0  0  0  0
    1.1103   -3.2938    5.1190 H   0  0  0  0  0  0  0  0  0  0  0  0
   -0.6976    0.6695    3.2848 H   0  0  0  0  0  0  0  0  0  0  0  0
   -1.3507    1.3197    1.7703 H   0  0  0  0  0  0  0  0  0  0  0  0
   -2.2674    0.0847    2.6675 H   0  0  0  0  0  0  0  0  0  0  0  0
   -1.8919    0.8446   -1.9903 H   0  0  0  0  0  0  0  0  0  0  0  0
   -1.6570   -0.9091   -2.0949 H   0  0  0  0  0  0  0  0  0  0  0  0
   -3.7260   -2.1472   -0.5619 H   0  0  0  0  0  0  0  0  0  0  0  0
   -6.1154   -2.5106   -0.8127 H   0  0  0  0  0  0  0  0  0  0  0  0
   -6.3973    1.0697   -3.2172 H   0  0  0  0  0  0  0  0  0  0  0  0
   -3.9898    1.4242   -2.9644 H   0  0  0  0  0  0  0  0  0  0  0  0
   -8.2862   -0.1299   -2.7408 H   0  0  0  0  0  0  0  0  0  0  0  0
  -10.3742   -0.3935   -1.7261 H   0  0  0  0  0  0  0  0  0  0  0  0
  -11.6503   -1.6856   -3.4412 H   0  0  0  0  0  0  0  0  0  0  0  0
  -10.1268   -0.9943   -3.9510 H   0  0  0  0  0  0  0  0  0  0  0  0
   -9.0329   -3.1542   -3.9879 H   0  0  0  0  0  0  0  0  0  0  0  0
  -10.4731   -3.1130   -4.9772 H   0  0  0  0  0  0  0  0  0  0  0  0
  -11.7419   -4.2410   -3.0064 H   0  0  0  0  0  0  0  0  0  0  0  0
  -10.6323   -5.2206   -3.9799 H   0  0  0  0  0  0  0  0  0  0  0  0
  -10.4761   -5.2821   -1.3832 H   0  0  0  0  0  0  0  0  0  0  0  0
   -7.1650   -5.7334   -1.0621 H   0  0  0  0  0  0  0  0  0  0  0  0
   -8.2251   -4.6477   -0.3795 H   0  0  0  0  0  0  0  0  0  0  0  0
  -10.9801   -3.1700   -0.9115 H   0  0  0  0  0  0  0  0  0  0  0  0
  -12.9898   -3.0208    0.5949 H   0  0  0  0  0  0  0  0  0  0  0  0
  -12.2355   -3.6659    2.9238 H   0  0  0  0  0  0  0  0  0  0  0  0
   -9.9588   -3.1922    3.6798 H   0  0  0  0  0  0  0  0  0  0  0  0
  -10.8405   -1.6760    3.4882 H   0  0  0  0  0  0  0  0  0  0  0  0
   -9.6445   -2.1685    2.2731 H   0  0  0  0  0  0  0  0  0  0  0  0
  -10.0838   -4.2276    0.8463 H   0  0  0  0  0  0  0  0  0  0  0  0
  -10.5455   -5.2199    2.2271 H   0  0  0  0  0  0  0  0  0  0  0  0
  -11.6699   -5.0268    0.8769 H   0  0  0  0  0  0  0  0  0  0  0  0
  -12.6190   -0.7436    2.4619 H   0  0  0  0  0  0  0  0  0  0  0  0
  -14.0881    0.9762    2.2161 H   0  0  0  0  0  0  0  0  0  0  0  0
  -15.1249   -0.0990    3.1805 H   0  0  0  0  0  0  0  0  0  0  0  0
  -16.9173    0.0747    1.4497 H   0  0  0  0  0  0  0  0  0  0  0  0
  -15.8677    1.0792    0.4528 H   0  0  0  0  0  0  0  0  0  0  0  0
  -16.7972    1.7844    3.2918 H   0  0  0  0  0  0  0  0  0  0  0  0
  -15.7839    2.8051    2.2753 H   0  0  0  0  0  0  0  0  0  0  0  0
  -18.6788    1.9810    1.6942 H   0  0  0  0  0  0  0  0  0  0  0  0
  -18.1373    3.5347    2.3071 H   0  0  0  0  0  0  0  0  0  0  0  0
  -16.7278    3.7696    0.1444 H   0  0  0  0  0  0  0  0  0  0  0  0
  -17.6139    2.3532   -0.4678 H   0  0  0  0  0  0  0  0  0  0  0  0
  -20.3770    6.9075   -0.4881 H   0  0  0  0  0  0  0  0  0  0  0  0
  -21.7861    4.7592   -1.2588 H   0  0  0  0  0  0  0  0  0  0  0  0
  1  2  1  0
  2  3  1  0
  3  4  1  0
  3  5  1  0
  5  6  1  0
  6  7  1  0
  7  8  1  0
  8  9  2  0
  8 10  1  0
 10 11  1  0
 11 12  1  0
 12 13  1  0
 13 14  1  0
 14 15  1  0
 15 16  1  0
 16 17  1  0
 16 18  1  0
 18 19  2  0
 18 20  1  0
 20 21  1  0
 21 22  1  0
 21 23  1  0
 23 24  1  0
 24 25  2  0
 25 26  1  0
 26 27  2  0
 27 28  1  0
 28 29  2  0
 23 30  1  0
 15 31  1  0
 31 32  1  0
  6 33  1  0
 33 34  1  0
  5 35  1  0
 35 36  1  0
 35 37  1  0
 37 38  2  0
 37 39  1  0
 39 40  1  0
 40 41  1  0
 40 42  1  0
 39 43  1  0
 43 44  1  0
 44 45  2  0
 44 46  1  0
 46 47  1  0
 47 48  1  0
 47 49  1  0
 46 50  1  0
 50 51  1  0
 50 52  1  0
 52 53  2  0
 52 54  1  0
 54 55  1  0
 55 56  1  0
 56 57  1  0
 57 58  2  0
 58 59  1  0
 59 60  2  0
 60 61  1  0
 59 62  1  0
 62 63  1  0
 63 64  2  0
 63 65  1  0
 65 66  1  0
 66 67  1  0
 67 68  1  0
 68 69  1  0
 69 70  1  0
 70 71  2  0
 70 72  1  0
 65 73  1  0
 73 74  1  0
 74 75  2  0
 74 76  1  0
 76 77  1  0
 77 78  1  0
 77 79  1  0
 76 80  1  0
 80 81  1  0
 81 82  2  0
 81 83  1  0
 83 84  1  0
 84 85  1  0
 85 86  1  0
 86 87  1  0
 87 88  1  0
 88 89  1  0
 89 90  2  0
 89 91  1  0
 91 92  2  0
 92 93  1  0
 93 94  2  0
 14 10  1  0
 29 24  1  0
 61 56  2  0
 93 88  1  0
  1 95  1  0
  1 96  1  0
  1 97  1  0
  2 98  1  0
  2 99  1  0
  3100  1  6
  4101  1  0
  4102  1  0
  4103  1  0
  5104  1  6
  6105  1  1
  7106  1  0
  7107  1  0
 11108  1  0
 11109  1  0
 12110  1  0
 12111  1  0
 13112  1  0
 13113  1  0
 14114  1  6
 15115  1  1
 16116  1  6
 17117  1  0
 17118  1  0
 17119  1  0
 20120  1  0
 21121  1  6
 22122  1  0
 22123  1  0
 22124  1  0
 23125  1  1
 25126  1  0
 26127  1  0
 27128  1  0
 28129  1  0
 29130  1  0
 30131  1  0
 32132  1  0
 32133  1  0
 32134  1  0
 34135  1  0
 34136  1  0
 34137  1  0
 36138  1  0
 36139  1  0
 36140  1  0
 39141  1  1
 40142  1  0
 41143  1  0
 41144  1  0
 41145  1  0
 42146  1  0
 42147  1  0
 42148  1  0
 43149  1  0
 46150  1  6
 47151  1  0
 48152  1  0
 48153  1  0
 48154  1  0
 49155  1  0
 49156  1  0
 49157  1  0
 51158  1  0
 51159  1  0
 51160  1  0
 55161  1  0
 55162  1  0
 57163  1  0
 58164  1  0
 60165  1  0
 61166  1  0
 62167  1  0
 65168  1  6
 66169  1  0
 66170  1  0
 67171  1  0
 67172  1  0
 68173  1  0
 68174  1  0
 69175  1  0
 72176  1  0
 72177  1  0
 73178  1  0
 76179  1  6
 77180  1  0
 78181  1  0
 78182  1  0
 78183  1  0
 79184  1  0
 79185  1  0
 79186  1  0
 80187  1  0
 83188  1  0
 83189  1  0
 84190  1  0
 84191  1  0
 85192  1  0
 85193  1  0
 86194  1  0
 86195  1  0
 87196  1  0
 87197  1  0
 91198  1  0
 92199  1  0
M  END
$$$$

     RDKit          3D

199202  0  0  0  0  0  0  0  0999 V2000
    6.3019   -1.0440   -2.3207 C   0  0  0  0  0  0  0  0  0  0  0  0
    5.1483   -1.9155   -1.8784 C   0  0  0  0  0  0  0  0  0  0  0  0
    5.3950   -2.8207   -0.6625 C   0  0  2  0  0  0  0  0  0  0  0  0
    4.1204   -3.6500   -0.4221 C   0  0  0  0  0  0  0  0  0  0  0  0
    5.9008   -2.2335    0.6885 C   0  0  1  0  0  0  0  0  0  0  0  0
    7.4424   -1.8433    0.7024 C   0  0  1  0  0  0  0  0  0  0  0  0
    7.7732   -0.6056    1.5464 C   0  0  0  0  0  0  0  0  0  0  0  0
    8.9096   -0.6211    2.5634 C   0  0  0  0  0  0  0  0  0  0  0  0
    9.0103   -1.5368    3.3957 O   0  0  0  0  0  0  0  0  0  0  0  0
    9.7055    0.5003    2.7284 N   0  0  0  0  0  0  0  0  0  0  0  0
   10.3019    0.7307    4.0373 C   0  0  0  0  0  0  0  0  0  0  0  0
   11.1837    1.9667    3.8955 C   0  0  0  0  0  0  0  0  0  0  0  0
   10.6085    2.6902    2.6865 C   0  0  0  0  0  0  0  0  0  0  0  0
   10.0186    1.5785    1.7947 C   0  0  1  0  0  0  0  0  0  0  0  0
   10.9544    1.2083    0.5983 C   0  0  1  0  0  0  0  0  0  0  0  0
   12.4241    0.7987    0.9285 C   0  0  1  0  0  0  0  0  0  0  0  0
   12.5337   -0.6187    1.4790 C   0  0  0  0  0  0  0  0  0  0  0  0
   13.2853    1.0028   -0.3338 C   0  0  0  0  0  0  0  0  0  0  0  0
   13.0126    1.8553   -1.1760 O   0  0  0  0  0  0  0  0  0  0  0  0
   14.4332    0.2589   -0.4148 N   0  0  0  0  0  0  0  0  0  0  0  0
   15.3783    0.3528   -1.5360 C   0  0  2  0  0  0  0  0  0  0  0  0
   15.7519   -1.0698   -1.9664 C   0  0  0  0  0  0  0  0  0  0  0  0
   16.6150    1.1963   -1.1218 C   0  0  1  0  0  0  0  0  0  0  0  0
   17.7879    1.0780   -2.0552 C   0  0  0  0  0  0  0  0  0  0  0  0
   18.9264    0.3481   -1.6635 C   0  0  0  0  0  0  0  0  0  0  0  0
   20.0113    0.2146   -2.5220 C   0  0  0  0  0  0  0  0  0  0  0  0
   19.9682    0.7719   -3.8008 C   0  0  0  0  0  0  0  0  0  0  0  0
   18.8476    1.4880   -4.2037 C   0  0  0  0  0  0  0  0  0  0  0  0
   17.7605    1.6400   -3.3428 C   0  0  0  0  0  0  0  0  0  0  0  0
   16.2579    2.5839   -1.0280 O   0  0  0  0  0  0  0  0  0  0  0  0
   10.3552    0.1418   -0.1585 O   0  0  0  0  0  0  0  0  0  0  0  0
    9.6676    0.6152   -1.3135 C   0  0  0  0  0  0  0  0  0  0  0  0
    8.1112   -3.0421    1.1734 O   0  0  0  0  0  0  0  0  0  0  0  0
    9.4756   -3.1749    0.7710 C   0  0  0  0  0  0  0  0  0  0  0  0
    4.9414   -1.3947    1.4683 N   0  0  0  0  0  0  0  0  0  0  0  0
    4.7100   -1.8720    2.8334 C   0  0  0  0  0  0  0  0  0  0  0  0
    4.2906   -0.2706    0.9544 C   0  0  0  0  0  0  0  0  0  0  0  0
    4.6406    0.2861   -0.0869 O   0  0  0  0  0  0  0  0  0  0  0  0
    3.0787    0.3017    1.7442 C   0  0  1  0  0  0  0  0  0  0  0  0
    3.3987    1.7036    2.3172 C   0  0  0  0  0  0  0  0  0  0  0  0
    2.4415    2.0384    3.4683 C   0  0  0  0  0  0  0  0  0  0  0  0
    4.8396    1.9083    2.7980 C   0  0  0  0  0  0  0  0  0  0  0  0
    1.8698    0.4195    0.9145 N   0  0  0  0  0  0  0  0  0  0  0  0
    1.0127   -0.6345    0.6940 C   0  0  0  0  0  0  0  0  0  0  0  0
    1.3595   -1.7899    0.8894 O   0  0  0  0  0  0  0  0  0  0  0  0
   -0.4502   -0.2596    0.2932 C   0  0  1  0  0  0  0  0  0  0  0  0
   -1.4299   -0.5976    1.4562 C   0  0  0  0  0  0  0  0  0  0  0  0
   -1.3665   -2.0742    1.8691 C   0  0  0  0  0  0  0  0  0  0  0  0
   -2.8792   -0.2790    1.0765 C   0  0  0  0  0  0  0  0  0  0  0  0
   -0.5654    1.1399   -0.1866 N   0  0  0  0  0  0  0  0  0  0  0  0
   -0.4487    2.2444    0.7633 C   0  0  0  0  0  0  0  0  0  0  0  0
   -1.0034    1.5090   -1.4582 C   0  0  0  0  0  0  0  0  0  0  0  0
   -0.6818    2.5528   -1.9964 O   0  0  0  0  0  0  0  0  0  0  0  0
   -1.8565    0.6066   -2.0096 O   0  0  0  0  0  0  0  0  0  0  0  0
   -2.7304    1.1396   -3.0269 C   0  0  0  0  0  0  0  0  0  0  0  0
   -4.1219    1.2958   -2.4355 C   0  0  0  0  0  0  0  0  0  0  0  0
   -4.2955    1.8704   -1.1727 C   0  0  0  0  0  0  0  0  0  0  0  0
   -5.5151    1.8083   -0.5111 C   0  0  0  0  0  0  0  0  0  0  0  0
   -6.6040    1.2342   -1.1616 C   0  0  0  0  0  0  0  0  0  0  0  0
   -6.5009    0.8302   -2.4949 C   0  0  0  0  0  0  0  0  0  0  0  0
   -5.2518    0.8392   -3.1194 C   0  0  0  0  0  0  0  0  0  0  0  0
   -7.7779    0.9533   -0.4292 N   0  0  0  0  0  0  0  0  0  0  0  0
   -7.8004   -0.3463    0.1033 C   0  0  0  0  0  0  0  0  0  0  0  0
   -6.9926   -0.7269    0.9592 O   0  0  0  0  0  0  0  0  0  0  0  0
   -8.7816   -1.3147   -0.6149 C   0  0  1  0  0  0  0  0  0  0  0  0
   -8.3313   -2.7913   -0.5955 C   0  0  0  0  0  0  0  0  0  0  0  0
   -8.0189   -3.5157    0.7190 C   0  0  0  0  0  0  0  0  0  0  0  0
   -8.9988   -3.3571    1.8722 C   0  0  0  0  0  0  0  0  0  0  0  0
   -8.9742   -2.0273    2.4323 N   0  0  0  0  0  0  0  0  0  0  0  0
   -9.9468   -1.5391    3.2420 C   0  0  0  0  0  0  0  0  0  0  0  0
  -10.9871   -2.1160    3.5114 O   0  0  0  0  0  0  0  0  0  0  0  0
   -9.7012   -0.2930    3.7173 N   0  0  0  0  0  0  0  0  0  0  0  0
  -10.2161   -1.1710   -0.3557 N   0  0  0  0  0  0  0  0  0  0  0  0
  -10.9161   -0.0186   -0.6408 C   0  0  0  0  0  0  0  0  0  0  0  0
  -10.3522    1.0588   -0.7270 O   0  0  0  0  0  0  0  0  0  0  0  0
  -12.4621   -0.1252   -0.6135 C   0  0  1  0  0  0  0  0  0  0  0  0
  -12.9441   -0.0042    0.8542 C   0  0  0  0  0  0  0  0  0  0  0  0
  -13.3247   -1.3809    1.4028 C   0  0  0  0  0  0  0  0  0  0  0  0
  -14.1195    0.9442    1.1126 C   0  0  0  0  0  0  0  0  0  0  0  0
  -12.9750    0.9232   -1.5221 N   0  0  0  0  0  0  0  0  0  0  0  0
  -14.2882    0.8205   -1.9784 C   0  0  0  0  0  0  0  0  0  0  0  0
  -15.0188   -0.1174   -1.7247 O   0  0  0  0  0  0  0  0  0  0  0  0
  -14.6612    1.9966   -2.8710 C   0  0  0  0  0  0  0  0  0  0  0  0
  -16.1513    2.0996   -3.1826 C   0  0  0  0  0  0  0  0  0  0  0  0
  -16.9962    2.8026   -2.1070 C   0  0  0  0  0  0  0  0  0  0  0  0
  -17.4058    1.9789   -0.8879 C   0  0  0  0  0  0  0  0  0  0  0  0
  -18.6877    1.1538   -1.0370 C   0  0  0  0  0  0  0  0  0  0  0  0
  -18.5895    0.0647   -1.9940 N   0  0  0  0  0  0  0  0  0  0  0  0
  -19.0711    0.1072   -3.2610 C   0  0  0  0  0  0  0  0  0  0  0  0
  -19.5906    1.0283   -3.8642 O   0  0  0  0  0  0  0  0  0  0  0  0
  -18.8538   -1.2269   -3.8456 C   0  0  0  0  0  0  0  0  0  0  0  0
  -18.2883   -1.9912   -2.9090 C   0  0  0  0  0  0  0  0  0  0  0  0
  -18.1809   -1.1980   -1.6728 C   0  0  0  0  0  0  0  0  0  0  0  0
  -17.9014   -1.6611   -0.5955 O   0  0  0  0  0  0  0  0  0  0  0  0
    7.1895   -1.6350   -2.5621 H   0  0  0  0  0  0  0  0  0  0  0  0
    6.0236   -0.4990   -3.2337 H   0  0  0  0  0  0  0  0  0  0  0  0
    6.5720   -0.2951   -1.5761 H   0  0  0  0  0  0  0  0  0  0  0  0
    4.2467   -1.3127   -1.7450 H   0  0  0  0  0  0  0  0  0  0  0  0
    4.9079   -2.5740   -2.7280 H   0  0  0  0  0  0  0  0  0  0  0  0
    6.1789   -3.5402   -0.9653 H   0  0  0  0  0  0  0  0  0  0  0  0
    3.8644   -4.2226   -1.3202 H   0  0  0  0  0  0  0  0  0  0  0  0
    3.2735   -2.9981   -0.1987 H   0  0  0  0  0  0  0  0  0  0  0  0
    4.2479   -4.3535    0.4079 H   0  0  0  0  0  0  0  0  0  0  0  0
    5.9110   -3.1547    1.2985 H   0  0  0  0  0  0  0  0  0  0  0  0
    7.7954   -1.7518   -0.3124 H   0  0  0  0  0  0  0  0  0  0  0  0
    7.7962    0.2755    0.8962 H   0  0  0  0  0  0  0  0  0  0  0  0
    6.9449   -0.3756    2.2227 H   0  0  0  0  0  0  0  0  0  0  0  0
   10.8615   -0.1348    4.3963 H   0  0  0  0  0  0  0  0  0  0  0  0
    9.4825    0.9382    4.7379 H   0  0  0  0  0  0  0  0  0  0  0  0
   12.2275    1.6747    3.7229 H   0  0  0  0  0  0  0  0  0  0  0  0
   11.1582    2.5906    4.7959 H   0  0  0  0  0  0  0  0  0  0  0  0
    9.7974    3.3514    3.0180 H   0  0  0  0  0  0  0  0  0  0  0  0
   11.3538    3.3101    2.1725 H   0  0  0  0  0  0  0  0  0  0  0  0
    9.0775    1.9477    1.3660 H   0  0  0  0  0  0  0  0  0  0  0  0
   10.9905    2.1206   -0.0172 H   0  0  0  0  0  0  0  0  0  0  0  0
   12.8459    1.5050    1.6536 H   0  0  0  0  0  0  0  0  0  0  0  0
   11.7971   -0.8157    2.2589 H   0  0  0  0  0  0  0  0  0  0  0  0
   13.5116   -0.7884    1.9402 H   0  0  0  0  0  0  0  0  0  0  0  0
   12.4130   -1.3641    0.6900 H   0  0  0  0  0  0  0  0  0  0  0  0
   14.7312   -0.3011    0.3790 H   0  0  0  0  0  0  0  0  0  0  0  0
   14.8629    0.8385   -2.3802 H   0  0  0  0  0  0  0  0  0  0  0  0
   16.3399   -1.0813   -2.8912 H   0  0  0  0  0  0  0  0  0  0  0  0
   14.8483   -1.6684   -2.1486 H   0  0  0  0  0  0  0  0  0  0  0  0
   16.3246   -1.5780   -1.1837 H   0  0  0  0  0  0  0  0  0  0  0  0
   16.9262    0.8869   -0.1165 H   0  0  0  0  0  0  0  0  0  0  0  0
   18.9749   -0.0928   -0.6708 H   0  0  0  0  0  0  0  0  0  0  0  0
   20.8886   -0.3346   -2.1995 H   0  0  0  0  0  0  0  0  0  0  0  0
   20.8155    0.6679   -4.4666 H   0  0  0  0  0  0  0  0  0  0  0  0
   18.8083    1.9383   -5.1971 H   0  0  0  0  0  0  0  0  0  0  0  0
   16.8898    2.2193   -3.6567 H   0  0  0  0  0  0  0  0  0  0  0  0
   15.5793    2.6390   -0.3354 H   0  0  0  0  0  0  0  0  0  0  0  0
    8.8579    1.2875   -1.0129 H   0  0  0  0  0  0  0  0  0  0  0  0
    9.2437   -0.2470   -1.8229 H   0  0  0  0  0  0  0  0  0  0  0  0
   10.3606    1.1354   -1.9837 H   0  0  0  0  0  0  0  0  0  0  0  0
    9.8910   -4.0038    1.3528 H   0  0  0  0  0  0  0  0  0  0  0  0
    9.5470   -3.4317   -0.2867 H   0  0  0  0  0  0  0  0  0  0  0  0
   10.0541   -2.2804    0.9955 H   0  0  0  0  0  0  0  0  0  0  0  0
    5.6457   -2.2521    3.2641 H   0  0  0  0  0  0  0  0  0  0  0  0
    3.9778   -2.6795    2.7938 H   0  0  0  0  0  0  0  0  0  0  0  0
    4.3561   -1.0851    3.4952 H   0  0  0  0  0  0  0  0  0  0  0  0
    2.7918   -0.3773    2.5500 H   0  0  0  0  0  0  0  0  0  0  0  0
    3.2314    2.4507    1.5229 H   0  0  0  0  0  0  0  0  0  0  0  0
    1.4235    1.7117    3.2452 H   0  0  0  0  0  0  0  0  0  0  0  0
    2.7621    1.5434    4.3919 H   0  0  0  0  0  0  0  0  0  0  0  0
    2.4190    3.1241    3.6452 H   0  0  0  0  0  0  0  0  0  0  0  0
    4.9531    2.9088    3.2415 H   0  0  0  0  0  0  0  0  0  0  0  0
    5.1104    1.1764    3.5680 H   0  0  0  0  0  0  0  0  0  0  0  0
    5.5513    1.8368    1.9737 H   0  0  0  0  0  0  0  0  0  0  0  0
    1.8218    1.1926    0.2496 H   0  0  0  0  0  0  0  0  0  0  0  0
   -0.6885   -0.9112   -0.5630 H   0  0  0  0  0  0  0  0  0  0  0  0
   -1.1807   -0.0070    2.3523 H   0  0  0  0  0  0  0  0  0  0  0  0
   -2.2272   -2.3715    2.4831 H   0  0  0  0  0  0  0  0  0  0  0  0
   -0.4684   -2.2790    2.4587 H   0  0  0  0  0  0  0  0  0  0  0  0
   -1.3536   -2.7154    0.9812 H   0  0  0  0  0  0  0  0  0  0  0  0
   -3.5882   -0.6322    1.8341 H   0  0  0  0  0  0  0  0  0  0  0  0
   -3.1412   -0.7503    0.1180 H   0  0  0  0  0  0  0  0  0  0  0  0
   -3.0200    0.7985    0.9956 H   0  0  0  0  0  0  0  0  0  0  0  0
   -1.4085    2.7737    0.8253 H   0  0  0  0  0  0  0  0  0  0  0  0
   -0.1863    1.8836    1.7620 H   0  0  0  0  0  0  0  0  0  0  0  0
    0.3124    2.9542    0.4093 H   0  0  0  0  0  0  0  0  0  0  0  0
   -2.7486    0.4165   -3.8513 H   0  0  0  0  0  0  0  0  0  0  0  0
   -2.4174    2.0958   -3.4504 H   0  0  0  0  0  0  0  0  0  0  0  0
   -3.4593    2.3235   -0.6479 H   0  0  0  0  0  0  0  0  0  0  0  0
   -5.6114    2.1549    0.5155 H   0  0  0  0  0  0  0  0  0  0  0  0
   -7.3641    0.4398   -3.0206 H   0  0  0  0  0  0  0  0  0  0  0  0
   -5.1757    0.4350   -4.1279 H   0  0  0  0  0  0  0  0  0  0  0  0
   -8.6484    1.1288   -0.9424 H   0  0  0  0  0  0  0  0  0  0  0  0
   -8.7036   -1.0402   -1.6847 H   0  0  0  0  0  0  0  0  0  0  0  0
   -9.0777   -3.3835   -1.1334 H   0  0  0  0  0  0  0  0  0  0  0  0
   -7.4197   -2.8582   -1.2030 H   0  0  0  0  0  0  0  0  0  0  0  0
   -7.0109   -3.2377    1.0603 H   0  0  0  0  0  0  0  0  0  0  0  0
   -7.9450   -4.5898    0.4866 H   0  0  0  0  0  0  0  0  0  0  0  0
   -8.7241   -4.0399    2.6882 H   0  0  0  0  0  0  0  0  0  0  0  0
  -10.0210   -3.6157    1.5738 H   0  0  0  0  0  0  0  0  0  0  0  0
   -8.1158   -1.4801    2.3499 H   0  0  0  0  0  0  0  0  0  0  0  0
  -10.4786    0.0590    4.2747 H   0  0  0  0  0  0  0  0  0  0  0  0
   -8.7864   -0.1054    4.1053 H   0  0  0  0  0  0  0  0  0  0  0  0
  -10.6689   -1.8781    0.2153 H   0  0  0  0  0  0  0  0  0  0  0  0
  -12.7492   -1.0888   -1.0420 H   0  0  0  0  0  0  0  0  0  0  0  0
  -12.1162    0.3738    1.4738 H   0  0  0  0  0  0  0  0  0  0  0  0
  -13.6952   -1.3025    2.4339 H   0  0  0  0  0  0  0  0  0  0  0  0
  -14.1225   -1.8399    0.7993 H   0  0  0  0  0  0  0  0  0  0  0  0
  -12.4701   -2.0632    1.3936 H   0  0  0  0  0  0  0  0  0  0  0  0
  -14.0274    1.8907    0.5698 H   0  0  0  0  0  0  0  0  0  0  0  0
  -14.1632    1.2018    2.1765 H   0  0  0  0  0  0  0  0  0  0  0  0
  -15.0783    0.4737    0.8705 H   0  0  0  0  0  0  0  0  0  0  0  0
  -12.3570    1.1052   -2.2924 H   0  0  0  0  0  0  0  0  0  0  0  0
  -14.1160    1.8643   -3.8165 H   0  0  0  0  0  0  0  0  0  0  0  0
  -14.2927    2.9255   -2.4062 H   0  0  0  0  0  0  0  0  0  0  0  0
  -16.5618    1.1231   -3.4617 H   0  0  0  0  0  0  0  0  0  0  0  0
  -16.2326    2.7196   -4.0895 H   0  0  0  0  0  0  0  0  0  0  0  0
  -17.9094    3.2044   -2.5781 H   0  0  0  0  0  0  0  0  0  0  0  0
  -16.4326    3.6819   -1.7497 H   0  0  0  0  0  0  0  0  0  0  0  0
  -17.6091    2.6927   -0.0738 H   0  0  0  0  0  0  0  0  0  0  0  0
  -16.5872    1.3574   -0.5267 H   0  0  0  0  0  0  0  0  0  0  0  0
  -18.9287    0.7266   -0.0538 H   0  0  0  0  0  0  0  0  0  0  0  0
  -19.5241    1.8113   -1.3282 H   0  0  0  0  0  0  0  0  0  0  0  0
  -19.1183   -1.4941   -4.8509 H   0  0  0  0  0  0  0  0  0  0  0  0
  -17.9921   -3.0259   -2.9934 H   0  0  0  0  0  0  0  0  0  0  0  0
  1  2  1  0
  2  3  1  0
  3  4  1  0
  3  5  1  0
  5  6  1  0
  6  7  1  0
  7  8  1  0
  8  9  2  0
  8 10  1  0
 10 11  1  0
 11 12  1  0
 12 13  1  0
 13 14  1  0
 14 15  1  0
 15 16  1  0
 16 17  1  0
 16 18  1  0
 18 19  2  0
 18 20  1  0
 20 21  1  0
 21 22  1  0
 21 23  1  0
 23 24  1  0
 24 25  2  0
 25 26  1  0
 26 27  2  0
 27 28  1  0
 28 29  2  0
 23 30  1  0
 15 31  1  0
 31 32  1  0
  6 33  1  0
 33 34  1  0
  5 35  1  0
 35 36  1  0
 35 37  1  0
 37 38  2  0
 37 39  1  0
 39 40  1  0
 40 41  1  0
 40 42  1  0
 39 43  1  0
 43 44  1  0
 44 45  2  0
 44 46  1  0
 46 47  1  0
 47 48  1  0
 47 49  1  0
 46 50  1  0
 50 51  1  0
 50 52  1  0
 52 53  2  0
 52 54  1  0
 54 55  1  0
 55 56  1  0
 56 57  1  0
 57 58  2  0
 58 59  1  0
 59 60  2  0
 60 61  1  0
 59 62  1  0
 62 63  1  0
 63 64  2  0
 63 65  1  0
 65 66  1  0
 66 67  1  0
 67 68  1  0
 68 69  1  0
 69 70  1  0
 70 71  2  0
 70 72  1  0
 65 73  1  0
 73 74  1  0
 74 75  2  0
 74 76  1  0
 76 77  1  0
 77 78  1  0
 77 79  1  0
 76 80  1  0
 80 81  1  0
 81 82  2  0
 81 83  1  0
 83 84  1  0
 84 85  1  0
 85 86  1  0
 86 87  1  0
 87 88  1  0
 88 89  1  0
 89 90  2  0
 89 91  1  0
 91 92  2  0
 92 93  1  0
 93 94  2  0
 14 10  1  0
 29 24  1  0
 61 56  2  0
 93 88  1  0
  1 95  1  0
  1 96  1  0
  1 97  1  0
  2 98  1  0
  2 99  1  0
  3100  1  6
  4101  1  0
  4102  1  0
  4103  1  0
  5104  1  1
  6105  1  6
  7106  1  0
  7107  1  0
 11108  1  0
 11109  1  0
 12110  1  0
 12111  1  0
 13112  1  0
 13113  1  0
 14114  1  6
 15115  1  6
 16116  1  1
 17117  1  0
 17118  1  0
 17119  1  0
 20120  1  0
 21121  1  6
 22122  1  0
 22123  1  0
 22124  1  0
 23125  1  1
 25126  1  0
 26127  1  0
 27128  1  0
 28129  1  0
 29130  1  0
 30131  1  0
 32132  1  0
 32133  1  0
 32134  1  0
 34135  1  0
 34136  1  0
 34137  1  0
 36138  1  0
 36139  1  0
 36140  1  0
 39141  1  1
 40142  1  0
 41143  1  0
 41144  1  0
 41145  1  0
 42146  1  0
 42147  1  0
 42148  1  0
 43149  1  0
 46150  1  6
 47151  1  0
 48152  1  0
 48153  1  0
 48154  1  0
 49155  1  0
 49156  1  0
 49157  1  0
 51158  1  0
 51159  1  0
 51160  1  0
 55161  1  0
 55162  1  0
 57163  1  0
 58164  1  0
 60165  1  0
 61166  1  0
 62167  1  0
 65168  1  6
 66169  1  0
 66170  1  0
 67171  1  0
 67172  1  0
 68173  1  0
 68174  1  0
 69175  1  0
 72176  1  0
 72177  1  0
 73178  1  0
 76179  1  6
 77180  1  0
 78181  1  0
 78182  1  0
 78183  1  0
 79184  1  0
 79185  1  0
 79186  1  0
 80187  1  0
 83188  1  0
 83189  1  0
 84190  1  0
 84191  1  0
 85192  1  0
 85193  1  0
 86194  1  0
 86195  1  0
 87196  1  0
 87197  1  0
 91198  1  0
 92199  1  0
M  END
$$$$
