
     RDKit          3D

199202  0  0  0  0  0  0  0  0999 V2000
   -1.7225    3.9566    1.6698 C   0  0  0  0  0  0  0  0  0  0  0  0
   -2.7154    4.7765    2.4312 C   0  0  0  0  0  0  0  0  0  0  0  0
   -3.8855    5.1565    1.5912 C   0  0  2  0  0  0  0  0  0  0  0  0
   -4.7621    5.9998    2.4955 C   0  0  0  0  0  0  0  0  0  0  0  0
   -4.6780    3.9937    0.9639 C   0  0  1  0  0  0  0  0  0  0  0  0
   -5.3337    3.1266    1.8988 C   0  0  1  0  0  0  0  0  0  0  0  0
   -5.8171    1.7503    1.5059 C   0  0  0  0  0  0  0  0  0  0  0  0
   -4.8041    0.7504    1.1382 C   0  0  0  0  0  0  0  0  0  0  0  0
   -3.6435    0.9582    0.7487 O   0  0  0  0  0  0  0  0  0  0  0  0
   -5.2369   -0.6347    1.2787 N   0  0  0  0  0  0  0  0  0  0  0  0
   -6.6655   -0.9206    1.5666 C   0  0  0  0  0  0  0  0  0  0  0  0
   -6.8342   -2.3267    1.0256 C   0  0  0  0  0  0  0  0  0  0  0  0
   -5.5067   -2.9921    1.4050 C   0  0  0  0  0  0  0  0  0  0  0  0
   -4.4792   -1.8456    1.3168 C   0  0  1  0  0  0  0  0  0  0  0  0
   -3.6005   -2.1935    0.1561 C   0  0  1  0  0  0  0  0  0  0  0  0
   -2.5757   -3.1923    0.5090 C   0  0  1  0  0  0  0  0  0  0  0  0
   -3.0593   -4.5335    1.0214 C   0  0  0  0  0  0  0  0  0  0  0  0
   -1.5356   -3.4489   -0.5172 C   0  0  0  0  0  0  0  0  0  0  0  0
   -0.2986   -3.2794   -0.2114 O   0  0  0  0  0  0  0  0  0  0  0  0
   -1.7789   -3.8804   -1.8338 N   0  0  0  0  0  0  0  0  0  0  0  0
   -0.7070   -4.1414   -2.7369 C   0  0  2  0  0  0  0  0  0  0  0  0
   -0.2954   -2.9636   -3.5990 C   0  0  0  0  0  0  0  0  0  0  0  0
   -0.9352   -5.3536   -3.5702 C   0  0  1  0  0  0  0  0  0  0  0  0
    0.0953   -5.5134   -4.6369 C   0  0  0  0  0  0  0  0  0  0  0  0
    1.3346   -6.0985   -4.3807 C   0  0  0  0  0  0  0  0  0  0  0  0
    2.3014   -6.2476   -5.3466 C   0  0  0  0  0  0  0  0  0  0  0  0
    2.0181   -5.7888   -6.6368 C   0  0  0  0  0  0  0  0  0  0  0  0
    0.8021   -5.2109   -6.8994 C   0  0  0  0  0  0  0  0  0  0  0  0
   -0.1667   -5.0605   -5.9359 C   0  0  0  0  0  0  0  0  0  0  0  0
   -1.0632   -6.4713   -2.7549 O   0  0  0  0  0  0  0  0  0  0  0  0
   -4.2915   -2.4257   -1.0039 O   0  0  0  0  0  0  0  0  0  0  0  0
   -4.1141   -1.4712   -1.9720 C   0  0  0  0  0  0  0  0  0  0  0  0
   -4.3571    2.7213    2.9158 O   0  0  0  0  0  0  0  0  0  0  0  0
   -5.0146    2.8541    4.1552 C   0  0  0  0  0  0  0  0  0  0  0  0
   -5.4942    4.6364   -0.0469 N   0  0  0  0  0  0  0  0  0  0  0  0
   -6.7601    5.2137    0.5396 C   0  0  0  0  0  0  0  0  0  0  0  0
   -5.3848    4.7809   -1.4144 C   0  0  0  0  0  0  0  0  0  0  0  0
   -6.3830    5.5958   -1.8846 O   0  0  0  0  0  0  0  0  0  0  0  0
   -4.5691    4.3601   -2.4904 C   0  0  1  0  0  0  0  0  0  0  0  0
   -3.6546    5.4902   -3.0391 C   0  0  0  0  0  0  0  0  0  0  0  0
   -2.7357    6.0016   -1.9598 C   0  0  0  0  0  0  0  0  0  0  0  0
   -4.4094    6.6207   -3.6276 C   0  0  0  0  0  0  0  0  0  0  0  0
   -3.7042    3.2238   -2.4723 N   0  0  0  0  0  0  0  0  0  0  0  0
   -3.4312    2.6734   -3.7875 C   0  0  0  0  0  0  0  0  0  0  0  0
   -3.9576    3.2458   -4.8104 O   0  0  0  0  0  0  0  0  0  0  0  0
   -2.5959    1.5058   -4.0706 C   0  0  1  0  0  0  0  0  0  0  0  0
   -3.4397    0.5338   -4.9284 C   0  0  0  0  0  0  0  0  0  0  0  0
   -2.6860   -0.7034   -5.2897 C   0  0  0  0  0  0  0  0  0  0  0  0
   -4.1003    1.1944   -6.0856 C   0  0  0  0  0  0  0  0  0  0  0  0
   -1.3600    1.8311   -4.7264 N   0  0  0  0  0  0  0  0  0  0  0  0
   -1.2131    2.6593   -5.8900 C   0  0  0  0  0  0  0  0  0  0  0  0
   -0.1592    1.2866   -4.1511 C   0  0  0  0  0  0  0  0  0  0  0  0
   -0.2647    0.5310   -3.1546 O   0  0  0  0  0  0  0  0  0  0  0  0
    1.0911    1.5670   -4.6578 O   0  0  0  0  0  0  0  0  0  0  0  0
    2.3238    1.0714   -4.2108 C   0  0  0  0  0  0  0  0  0  0  0  0
    2.6417    1.2735   -2.8047 C   0  0  0  0  0  0  0  0  0  0  0  0
    2.4009    0.1829   -1.9502 C   0  0  0  0  0  0  0  0  0  0  0  0
    2.6524    0.2369   -0.6027 C   0  0  0  0  0  0  0  0  0  0  0  0
    3.1630    1.3861   -0.0080 C   0  0  0  0  0  0  0  0  0  0  0  0
    3.3961    2.4487   -0.8394 C   0  0  0  0  0  0  0  0  0  0  0  0
    3.1443    2.4049   -2.2161 C   0  0  0  0  0  0  0  0  0  0  0  0
    3.4268    1.3364    1.3719 N   0  0  0  0  0  0  0  0  0  0  0  0
    3.7023    2.4207    2.2259 C   0  0  0  0  0  0  0  0  0  0  0  0
    3.7204    3.6047    1.7978 O   0  0  0  0  0  0  0  0  0  0  0  0
    3.9930    2.2687    3.6904 C   0  0  1  0  0  0  0  0  0  0  0  0
    3.1950    3.2006    4.5103 C   0  0  0  0  0  0  0  0  0  0  0  0
    1.7351    3.1820    4.5382 C   0  0  0  0  0  0  0  0  0  0  0  0
    0.9976    2.0106    5.0712 C   0  0  0  0  0  0  0  0  0  0  0  0
    1.1432    0.7500    4.4253 N   0  0  0  0  0  0  0  0  0  0  0  0
    0.7932    0.5022    3.0738 C   0  0  0  0  0  0  0  0  0  0  0  0
    0.3257    1.4143    2.3505 O   0  0  0  0  0  0  0  0  0  0  0  0
    0.9772   -0.8008    2.5425 N   0  0  0  0  0  0  0  0  0  0  0  0
    4.1062    0.9152    4.1259 N   0  0  0  0  0  0  0  0  0  0  0  0
    5.1622    0.6149    5.0621 C   0  0  0  0  0  0  0  0  0  0  0  0
    5.9385    1.5262    5.4895 O   0  0  0  0  0  0  0  0  0  0  0  0
    5.4062   -0.7640    5.5766 C   0  0  1  0  0  0  0  0  0  0  0  0
    5.2257   -0.8899    7.0597 C   0  0  0  0  0  0  0  0  0  0  0  0
    3.8452   -0.5367    7.5264 C   0  0  0  0  0  0  0  0  0  0  0  0
    6.2933   -0.2020    7.8661 C   0  0  0  0  0  0  0  0  0  0  0  0
    4.5659   -1.7474    4.9189 N   0  0  0  0  0  0  0  0  0  0  0  0
    5.1900   -2.5518    3.8765 C   0  0  0  0  0  0  0  0  0  0  0  0
    6.3910   -2.2843    3.6723 O   0  0  0  0  0  0  0  0  0  0  0  0
    4.3585   -3.5361    3.2232 C   0  0  0  0  0  0  0  0  0  0  0  0
    5.0219   -4.1699    2.0345 C   0  0  0  0  0  0  0  0  0  0  0  0
    5.3580   -3.1304    1.0175 C   0  0  0  0  0  0  0  0  0  0  0  0
    5.9045   -3.7295   -0.2189 C   0  0  0  0  0  0  0  0  0  0  0  0
    7.1617   -4.4924   -0.0668 C   0  0  0  0  0  0  0  0  0  0  0  0
    8.2886   -3.7509    0.4195 N   0  0  0  0  0  0  0  0  0  0  0  0
    8.8727   -3.5694    1.6739 C   0  0  0  0  0  0  0  0  0  0  0  0
    8.5195   -4.1144    2.7320 O   0  0  0  0  0  0  0  0  0  0  0  0
    9.9847   -2.6291    1.5516 C   0  0  0  0  0  0  0  0  0  0  0  0
   10.1062   -2.2338    0.2976 C   0  0  0  0  0  0  0  0  0  0  0  0
    9.0653   -2.9056   -0.4716 C   0  0  0  0  0  0  0  0  0  0  0  0
    8.9044   -2.7477   -1.7052 O   0  0  0  0  0  0  0  0  0  0  0  0
   -2.0704    2.9539    1.5306 H   0  0  0  0  0  0  0  0  0  0  0  0
   -1.4921    4.5347    0.7411 H   0  0  0  0  0  0  0  0  0  0  0  0
   -0.7255    3.9250    2.1965 H   0  0  0  0  0  0  0  0  0  0  0  0
   -2.1508    5.7771    2.6074 H   0  0  0  0  0  0  0  0  0  0  0  0
   -2.8945    4.4442    3.4455 H   0  0  0  0  0  0  0  0  0  0  0  0
   -3.5186    5.8148    0.7810 H   0  0  0  0  0  0  0  0  0  0  0  0
   -4.2252    6.1930    3.4812 H   0  0  0  0  0  0  0  0  0  0  0  0
   -4.8796    7.0207    2.0820 H   0  0  0  0  0  0  0  0  0  0  0  0
   -5.7189    5.5962    2.7667 H   0  0  0  0  0  0  0  0  0  0  0  0
   -3.8116    3.4351    0.4708 H   0  0  0  0  0  0  0  0  0  0  0  0
   -6.1476    3.5095    2.5545 H   0  0  0  0  0  0  0  0  0  0  0  0
   -6.3361    1.3379    2.4234 H   0  0  0  0  0  0  0  0  0  0  0  0
   -6.6442    1.8014    0.7604 H   0  0  0  0  0  0  0  0  0  0  0  0
   -7.2760   -0.1667    1.0775 H   0  0  0  0  0  0  0  0  0  0  0  0
   -6.8527   -0.9712    2.6350 H   0  0  0  0  0  0  0  0  0  0  0  0
   -7.0235   -2.3364   -0.0491 H   0  0  0  0  0  0  0  0  0  0  0  0
   -7.6048   -2.8917    1.5684 H   0  0  0  0  0  0  0  0  0  0  0  0
   -5.5725   -3.4127    2.4192 H   0  0  0  0  0  0  0  0  0  0  0  0
   -5.3660   -3.7546    0.6237 H   0  0  0  0  0  0  0  0  0  0  0  0
   -3.8495   -1.8810    2.2700 H   0  0  0  0  0  0  0  0  0  0  0  0
   -2.9824   -1.2083    0.0083 H   0  0  0  0  0  0  0  0  0  0  0  0
   -2.0349   -2.7551    1.4252 H   0  0  0  0  0  0  0  0  0  0  0  0
   -2.1225   -5.1615    1.2657 H   0  0  0  0  0  0  0  0  0  0  0  0
   -3.5795   -4.5018    1.9844 H   0  0  0  0  0  0  0  0  0  0  0  0
   -3.5888   -5.1506    0.3100 H   0  0  0  0  0  0  0  0  0  0  0  0
   -2.7562   -4.0099   -2.1554 H   0  0  0  0  0  0  0  0  0  0  0  0
    0.2063   -4.3185   -2.0916 H   0  0  0  0  0  0  0  0  0  0  0  0
   -0.0522   -2.1285   -2.9444 H   0  0  0  0  0  0  0  0  0  0  0  0
    0.7037   -3.2837   -4.0370 H   0  0  0  0  0  0  0  0  0  0  0  0
   -0.9290   -2.7784   -4.4587 H   0  0  0  0  0  0  0  0  0  0  0  0
   -1.9044   -5.2804   -4.1355 H   0  0  0  0  0  0  0  0  0  0  0  0
    1.5674   -6.4616   -3.3865 H   0  0  0  0  0  0  0  0  0  0  0  0
    3.2701   -6.7024   -5.1626 H   0  0  0  0  0  0  0  0  0  0  0  0
    2.7834   -5.9013   -7.4166 H   0  0  0  0  0  0  0  0  0  0  0  0
    0.5586   -4.8389   -7.9087 H   0  0  0  0  0  0  0  0  0  0  0  0
   -1.1313   -4.5993   -6.1536 H   0  0  0  0  0  0  0  0  0  0  0  0
   -1.8887   -6.9913   -2.9541 H   0  0  0  0  0  0  0  0  0  0  0  0
   -4.4487   -0.4484   -1.6276 H   0  0  0  0  0  0  0  0  0  0  0  0
   -3.0531   -1.4389   -2.3098 H   0  0  0  0  0  0  0  0  0  0  0  0
   -4.7800   -1.7196   -2.8220 H   0  0  0  0  0  0  0  0  0  0  0  0
   -5.9154    2.2279    4.2076 H   0  0  0  0  0  0  0  0  0  0  0  0
   -5.2641    3.8942    4.3635 H   0  0  0  0  0  0  0  0  0  0  0  0
   -4.2755    2.4355    4.8920 H   0  0  0  0  0  0  0  0  0  0  0  0
   -6.5842    6.2614    0.6940 H   0  0  0  0  0  0  0  0  0  0  0  0
   -7.5575    5.1973   -0.2895 H   0  0  0  0  0  0  0  0  0  0  0  0
   -7.1928    4.5874    1.2954 H   0  0  0  0  0  0  0  0  0  0  0  0
   -5.2302    4.2139   -3.4245 H   0  0  0  0  0  0  0  0  0  0  0  0
   -2.9906    5.0626   -3.8185 H   0  0  0  0  0  0  0  0  0  0  0  0
   -3.1177    6.8983   -1.4553 H   0  0  0  0  0  0  0  0  0  0  0  0
   -1.7212    6.2906   -2.3358 H   0  0  0  0  0  0  0  0  0  0  0  0
   -2.5402    5.1323   -1.2977 H   0  0  0  0  0  0  0  0  0  0  0  0
   -5.1708    6.3499   -4.3806 H   0  0  0  0  0  0  0  0  0  0  0  0
   -4.7599    7.2891   -2.8254 H   0  0  0  0  0  0  0  0  0  0  0  0
   -3.6673    7.2434   -4.1998 H   0  0  0  0  0  0  0  0  0  0  0  0
   -3.2623    2.7578   -1.6935 H   0  0  0  0  0  0  0  0  0  0  0  0
   -2.4131    0.9082   -3.1470 H   0  0  0  0  0  0  0  0  0  0  0  0
   -4.2801    0.1916   -4.2504 H   0  0  0  0  0  0  0  0  0  0  0  0
   -2.8938   -1.0234   -6.3542 H   0  0  0  0  0  0  0  0  0  0  0  0
   -1.6060   -0.5313   -5.2628 H   0  0  0  0  0  0  0  0  0  0  0  0
   -3.0045   -1.6067   -4.7000 H   0  0  0  0  0  0  0  0  0  0  0  0
   -5.1247    1.5412   -5.7610 H   0  0  0  0  0  0  0  0  0  0  0  0
   -4.3540    0.3934   -6.8401 H   0  0  0  0  0  0  0  0  0  0  0  0
   -3.5426    1.9420   -6.6374 H   0  0  0  0  0  0  0  0  0  0  0  0
   -1.2074    2.0532   -6.7990 H   0  0  0  0  0  0  0  0  0  0  0  0
   -1.9336    3.5039   -5.9472 H   0  0  0  0  0  0  0  0  0  0  0  0
   -0.2067    3.1652   -5.8090 H   0  0  0  0  0  0  0  0  0  0  0  0
    3.1081    1.6324   -4.8002 H   0  0  0  0  0  0  0  0  0  0  0  0
    2.4639   -0.0041   -4.4635 H   0  0  0  0  0  0  0  0  0  0  0  0
    2.0070   -0.7443   -2.3458 H   0  0  0  0  0  0  0  0  0  0  0  0
    2.4359   -0.6619   -0.0002 H   0  0  0  0  0  0  0  0  0  0  0  0
    3.7937    3.3673   -0.4488 H   0  0  0  0  0  0  0  0  0  0  0  0
    3.3352    3.2512   -2.8625 H   0  0  0  0  0  0  0  0  0  0  0  0
    3.4280    0.3781    1.8417 H   0  0  0  0  0  0  0  0  0  0  0  0
    5.0668    2.6840    3.8009 H   0  0  0  0  0  0  0  0  0  0  0  0
    3.5182    4.2463    4.2235 H   0  0  0  0  0  0  0  0  0  0  0  0
    3.5689    3.1046    5.5739 H   0  0  0  0  0  0  0  0  0  0  0  0
    1.4175    4.1372    5.0781 H   0  0  0  0  0  0  0  0  0  0  0  0
    1.2745    3.3721    3.5122 H   0  0  0  0  0  0  0  0  0  0  0  0
    1.1189    1.9034    6.1896 H   0  0  0  0  0  0  0  0  0  0  0  0
   -0.1122    2.2651    4.9668 H   0  0  0  0  0  0  0  0  0  0  0  0
    1.5191   -0.0518    4.9869 H   0  0  0  0  0  0  0  0  0  0  0  0
    1.7064   -1.4204    2.9038 H   0  0  0  0  0  0  0  0  0  0  0  0
    0.3749   -1.1834    1.7688 H   0  0  0  0  0  0  0  0  0  0  0  0
    3.5277    0.1124    3.8413 H   0  0  0  0  0  0  0  0  0  0  0  0
    6.4859   -0.9491    5.3448 H   0  0  0  0  0  0  0  0  0  0  0  0
    5.3480   -1.9915    7.2820 H   0  0  0  0  0  0  0  0  0  0  0  0
    3.6023   -1.0555    8.4977 H   0  0  0  0  0  0  0  0  0  0  0  0
    3.7823    0.5557    7.7708 H   0  0  0  0  0  0  0  0  0  0  0  0
    3.0749   -0.8377    6.7897 H   0  0  0  0  0  0  0  0  0  0  0  0
    6.1097    0.8774    7.9735 H   0  0  0  0  0  0  0  0  0  0  0  0
    7.3023   -0.4284    7.4302 H   0  0  0  0  0  0  0  0  0  0  0  0
    6.3307   -0.6397    8.8990 H   0  0  0  0  0  0  0  0  0  0  0  0
    3.5735   -1.9039    5.1422 H   0  0  0  0  0  0  0  0  0  0  0  0
    3.4159   -3.0325    2.9028 H   0  0  0  0  0  0  0  0  0  0  0  0
    4.0517   -4.2953    3.9851 H   0  0  0  0  0  0  0  0  0  0  0  0
    4.3141   -4.9349    1.6040 H   0  0  0  0  0  0  0  0  0  0  0  0
    5.9225   -4.7348    2.3323 H   0  0  0  0  0  0  0  0  0  0  0  0
    4.4416   -2.4970    0.7788 H   0  0  0  0  0  0  0  0  0  0  0  0
    6.0668   -2.3706    1.4444 H   0  0  0  0  0  0  0  0  0  0  0  0
    6.0153   -2.9142   -1.0211 H   0  0  0  0  0  0  0  0  0  0  0  0
    5.1490   -4.4523   -0.6656 H   0  0  0  0  0  0  0  0  0  0  0  0
    7.4189   -4.9540   -1.0656 H   0  0  0  0  0  0  0  0  0  0  0  0
    6.9555   -5.3284    0.6575 H   0  0  0  0  0  0  0  0  0  0  0  0
   10.6370   -2.2856    2.3678 H   0  0  0  0  0  0  0  0  0  0  0  0
   10.8511   -1.5452   -0.0372 H   0  0  0  0  0  0  0  0  0  0  0  0
  1  2  1  0
  2  3  1  0
  3  4  1  0
  3  5  1  0
  5  6  1  0
  6  7  1  0
  7  8  1  0
  8  9  2  0
  8 10  1  0
 10 11  1  0
 11 12  1  0
 12 13  1  0
 13 14  1  0
 14 15  1  0
 15 16  1  0
 16 17  1  0
 16 18  1  0
 18 19  2  0
 18 20  1  0
 20 21  1  0
 21 22  1  0
 21 23  1  0
 23 24  1  0
 24 25  2  0
 25 26  1  0
 26 27  2  0
 27 28  1  0
 28 29  2  0
 23 30  1  0
 15 31  1  0
 31 32  1  0
  6 33  1  0
 33 34  1  0
  5 35  1  0
 35 36  1  0
 35 37  1  0
 37 38  2  0
 37 39  1  0
 39 40  1  0
 40 41  1  0
 40 42  1  0
 39 43  1  0
 43 44  1  0
 44 45  2  0
 44 46  1  0
 46 47  1  0
 47 48  1  0
 47 49  1  0
 46 50  1  0
 50 51  1  0
 50 52  1  0
 52 53  2  0
 52 54  1  0
 54 55  1  0
 55 56  1  0
 56 57  1  0
 57 58  2  0
 58 59  1  0
 59 60  2  0
 60 61  1  0
 59 62  1  0
 62 63  1  0
 63 64  2  0
 63 65  1  0
 65 66  1  0
 66 67  1  0
 67 68  1  0
 68 69  1  0
 69 70  1  0
 70 71  2  0
 70 72  1  0
 65 73  1  0
 73 74  1  0
 74 75  2  0
 74 76  1  0
 76 77  1  0
 77 78  1  0
 77 79  1  0
 76 80  1  0
 80 81  1  0
 81 82  2  0
 81 83  1  0
 83 84  1  0
 84 85  1  0
 85 86  1  0
 86 87  1  0
 87 88  1  0
 88 89  1  0
 89 90  2  0
 89 91  1  0
 91 92  2  0
 92 93  1  0
 93 94  2  0
 14 10  1  0
 29 24  1  0
 61 56  2  0
 93 88  1  0
  1 95  1  0
  1 96  1  0
  1 97  1  0
  2 98  1  0
  2 99  1  0
  3100  1  6
  4101  1  0
  4102  1  0
  4103  1  0
  5104  1  6
  6105  1  1
  7106  1  0
  7107  1  0
 11108  1  0
 11109  1  0
 12110  1  0
 12111  1  0
 13112  1  0
 13113  1  0
 14114  1  1
 15115  1  6
 16116  1  1
 17117  1  0
 17118  1  0
 17119  1  0
 20120  1  0
 21121  1  1
 22122  1  0
 22123  1  0
 22124  1  0
 23125  1  6
 25126  1  0
 26127  1  0
 27128  1  0
 28129  1  0
 29130  1  0
 30131  1  0
 32132  1  0
 32133  1  0
 32134  1  0
 34135  1  0
 34136  1  0
 34137  1  0
 36138  1  0
 36139  1  0
 36140  1  0
 39141  1  6
 40142  1  0
 41143  1  0
 41144  1  0
 41145  1  0
 42146  1  0
 42147  1  0
 42148  1  0
 43149  1  0
 46150  1  1
 47151  1  0
 48152  1  0
 48153  1  0
 48154  1  0
 49155  1  0
 49156  1  0
 49157  1  0
 51158  1  0
 51159  1  0
 51160  1  0
 55161  1  0
 55162  1  0
 57163  1  0
 58164  1  0
 60165  1  0
 61166  1  0
 62167  1  0
 65168  1  6
 66169  1  0
 66170  1  0
 67171  1  0
 67172  1  0
 68173  1  0
 68174  1  0
 69175  1  0
 72176  1  0
 72177  1  0
 73178  1  0
 76179  1  1
 77180  1  0
 78181  1  0
 78182  1  0
 78183  1  0
 79184  1  0
 79185  1  0
 79186  1  0
 80187  1  0
 83188  1  0
 83189  1  0
 84190  1  0
 84191  1  0
 85192  1  0
 85193  1  0
 86194  1  0
 86195  1  0
 87196  1  0
 87197  1  0
 91198  1  0
 92199  1  0
M  END
$$$$

     RDKit          3D

199202  0  0  0  0  0  0  0  0999 V2000
    0.0077    0.0656   -7.9775 C   0  0  0  0  0  0  0  0  0  0  0  0
   -1.3297   -0.4135   -7.4497 C   0  0  0  0  0  0  0  0  0  0  0  0
   -1.1592   -0.9489   -6.0120 C   0  0  2  0  0  0  0  0  0  0  0  0
   -0.2226   -2.0837   -5.9844 C   0  0  0  0  0  0  0  0  0  0  0  0
   -2.4318   -0.9576   -5.3034 C   0  0  1  0  0  0  0  0  0  0  0  0
   -3.5936   -1.7825   -5.7976 C   0  0  1  0  0  0  0  0  0  0  0  0
   -4.8939   -1.0150   -5.4903 C   0  0  0  0  0  0  0  0  0  0  0  0
   -6.1298   -1.6548   -5.8818 C   0  0  0  0  0  0  0  0  0  0  0  0
   -6.3266   -2.8524   -6.1573 O   0  0  0  0  0  0  0  0  0  0  0  0
   -7.3116   -0.8074   -5.9800 N   0  0  0  0  0  0  0  0  0  0  0  0
   -7.2271    0.6067   -5.6699 C   0  0  0  0  0  0  0  0  0  0  0  0
   -8.6439    0.8533   -5.1943 C   0  0  0  0  0  0  0  0  0  0  0  0
   -9.4844   -0.0129   -6.1523 C   0  0  0  0  0  0  0  0  0  0  0  0
   -8.6478   -1.2083   -6.3912 C   0  0  1  0  0  0  0  0  0  0  0  0
   -8.6825   -1.8528   -7.7169 C   0  0  1  0  0  0  0  0  0  0  0  0
  -10.0227   -2.4040   -8.1237 C   0  0  1  0  0  0  0  0  0  0  0  0
  -10.5811   -3.4001   -7.1168 C   0  0  0  0  0  0  0  0  0  0  0  0
  -10.9794   -1.5391   -8.7679 C   0  0  0  0  0  0  0  0  0  0  0  0
  -11.0149   -1.6250  -10.0844 O   0  0  0  0  0  0  0  0  0  0  0  0
  -11.8931   -0.6161   -8.2664 N   0  0  0  0  0  0  0  0  0  0  0  0
  -12.7397    0.1405   -9.1362 C   0  0  2  0  0  0  0  0  0  0  0  0
  -12.1725    1.5742   -9.3083 C   0  0  0  0  0  0  0  0  0  0  0  0
  -14.1778    0.2277   -8.7467 C   0  0  1  0  0  0  0  0  0  0  0  0
  -14.8646    0.9165   -9.9118 C   0  0  0  0  0  0  0  0  0  0  0  0
  -15.0525    0.1466  -11.0572 C   0  0  0  0  0  0  0  0  0  0  0  0
  -15.6773    0.7358  -12.1611 C   0  0  0  0  0  0  0  0  0  0  0  0
  -16.1013    2.0704  -12.1062 C   0  0  0  0  0  0  0  0  0  0  0  0
  -15.8955    2.8056  -10.9409 C   0  0  0  0  0  0  0  0  0  0  0  0
  -15.2754    2.2227   -9.8465 C   0  0  0  0  0  0  0  0  0  0  0  0
  -14.7855   -1.0074   -8.6567 O   0  0  0  0  0  0  0  0  0  0  0  0
   -8.2043   -1.0167   -8.7458 O   0  0  0  0  0  0  0  0  0  0  0  0
   -7.1320   -1.6365   -9.3700 C   0  0  0  0  0  0  0  0  0  0  0  0
   -3.6387   -1.9672   -7.1569 O   0  0  0  0  0  0  0  0  0  0  0  0
   -3.5323   -3.2918   -7.5368 C   0  0  0  0  0  0  0  0  0  0  0  0
   -2.3643   -0.8429   -3.8448 N   0  0  0  0  0  0  0  0  0  0  0  0
   -2.6452    0.3988   -3.1448 C   0  0  0  0  0  0  0  0  0  0  0  0
   -1.9518   -1.9477   -3.0427 C   0  0  0  0  0  0  0  0  0  0  0  0
   -1.6122   -3.0444   -3.6023 O   0  0  0  0  0  0  0  0  0  0  0  0
   -1.8641   -1.9464   -1.5690 C   0  0  1  0  0  0  0  0  0  0  0  0
   -3.1178   -2.5405   -0.9077 C   0  0  0  0  0  0  0  0  0  0  0  0
   -4.3810   -1.8146   -1.2425 C   0  0  0  0  0  0  0  0  0  0  0  0
   -3.2379   -4.0343   -1.2010 C   0  0  0  0  0  0  0  0  0  0  0  0
   -0.8579   -3.0292   -1.2891 N   0  0  0  0  0  0  0  0  0  0  0  0
    0.2948   -2.7522   -0.5107 C   0  0  0  0  0  0  0  0  0  0  0  0
    0.3902   -1.5560   -0.0772 O   0  0  0  0  0  0  0  0  0  0  0  0
    1.3493   -3.7194   -0.1821 C   0  0  1  0  0  0  0  0  0  0  0  0
    2.1414   -4.1957   -1.4129 C   0  0  0  0  0  0  0  0  0  0  0  0
    1.2761   -4.8855   -2.4020 C   0  0  0  0  0  0  0  0  0  0  0  0
    3.1622   -5.1966   -0.8854 C   0  0  0  0  0  0  0  0  0  0  0  0
    2.2849   -3.2903    0.8137 N   0  0  0  0  0  0  0  0  0  0  0  0
    2.4562   -4.1404    2.0084 C   0  0  0  0  0  0  0  0  0  0  0  0
    3.0695   -2.1133    0.7678 C   0  0  0  0  0  0  0  0  0  0  0  0
    2.9780   -1.2482   -0.1465 O   0  0  0  0  0  0  0  0  0  0  0  0
    4.0065   -1.8605    1.7655 O   0  0  0  0  0  0  0  0  0  0  0  0
    4.7597   -0.6778    1.7197 C   0  0  0  0  0  0  0  0  0  0  0  0
    5.7671   -0.5890    2.7925 C   0  0  0  0  0  0  0  0  0  0  0  0
    5.5636   -0.1490    4.0693 C   0  0  0  0  0  0  0  0  0  0  0  0
    6.6327   -0.1139    4.9788 C   0  0  0  0  0  0  0  0  0  0  0  0
    7.8927   -0.4977    4.6672 C   0  0  0  0  0  0  0  0  0  0  0  0
    8.0874   -0.9463    3.3524 C   0  0  0  0  0  0  0  0  0  0  0  0
    7.0641   -0.9950    2.4369 C   0  0  0  0  0  0  0  0  0  0  0  0
    9.0133   -0.5485    5.5153 N   0  0  0  0  0  0  0  0  0  0  0  0
    9.0110   -0.3775    6.9221 C   0  0  0  0  0  0  0  0  0  0  0  0
    7.9630   -0.1522    7.5521 O   0  0  0  0  0  0  0  0  0  0  0  0
   10.3670   -0.4981    7.5993 C   0  0  1  0  0  0  0  0  0  0  0  0
   11.3906    0.4078    7.0045 C   0  0  0  0  0  0  0  0  0  0  0  0
   11.1006    1.8656    7.0672 C   0  0  0  0  0  0  0  0  0  0  0  0
   12.2543    2.6121    6.3790 C   0  0  0  0  0  0  0  0  0  0  0  0
   12.0337    4.0404    6.4356 N   0  0  0  0  0  0  0  0  0  0  0  0
   10.9089    4.6930    5.8698 C   0  0  0  0  0  0  0  0  0  0  0  0
   10.0031    4.0649    5.2586 O   0  0  0  0  0  0  0  0  0  0  0  0
   10.7454    6.1152    5.9690 N   0  0  0  0  0  0  0  0  0  0  0  0
   10.2803   -0.5031    9.0201 N   0  0  0  0  0  0  0  0  0  0  0  0
    9.6022    0.3873    9.8620 C   0  0  0  0  0  0  0  0  0  0  0  0
    8.9634    1.3745    9.3347 O   0  0  0  0  0  0  0  0  0  0  0  0
    9.5215    0.3362   11.3332 C   0  0  1  0  0  0  0  0  0  0  0  0
   10.7962    0.1912   12.0909 C   0  0  0  0  0  0  0  0  0  0  0  0
   10.3718    0.2180   13.5890 C   0  0  0  0  0  0  0  0  0  0  0  0
   11.4919   -1.1398   11.9403 C   0  0  0  0  0  0  0  0  0  0  0  0
    8.8309    1.5030   11.8676 N   0  0  0  0  0  0  0  0  0  0  0  0
    7.4348    1.5604   12.1022 C   0  0  0  0  0  0  0  0  0  0  0  0
    6.7104    0.5728   11.8395 O   0  0  0  0  0  0  0  0  0  0  0  0
    6.9214    2.8419   12.6602 C   0  0  0  0  0  0  0  0  0  0  0  0
    5.4261    2.9795   12.3699 C   0  0  0  0  0  0  0  0  0  0  0  0
    5.2226    2.9969   10.8739 C   0  0  0  0  0  0  0  0  0  0  0  0
    3.8149    3.1757   10.4177 C   0  0  0  0  0  0  0  0  0  0  0  0
    3.2274    4.4918   10.9039 C   0  0  0  0  0  0  0  0  0  0  0  0
    1.8903    4.5867   10.3893 N   0  0  0  0  0  0  0  0  0  0  0  0
    0.6491    4.1612   10.9350 C   0  0  0  0  0  0  0  0  0  0  0  0
    0.5217    3.5844   12.0546 O   0  0  0  0  0  0  0  0  0  0  0  0
   -0.4127    4.5038    9.9914 C   0  0  0  0  0  0  0  0  0  0  0  0
    0.1107    5.1065    8.9167 C   0  0  0  0  0  0  0  0  0  0  0  0
    1.5729    5.1779    9.1322 C   0  0  0  0  0  0  0  0  0  0  0  0
    2.3598    5.6890    8.3033 O   0  0  0  0  0  0  0  0  0  0  0  0
    0.7633    0.1056   -7.1541 H   0  0  0  0  0  0  0  0  0  0  0  0
   -0.1106    1.1058   -8.3405 H   0  0  0  0  0  0  0  0  0  0  0  0
    0.3677   -0.6109   -8.7869 H   0  0  0  0  0  0  0  0  0  0  0  0
   -1.7165   -1.1799   -8.1148 H   0  0  0  0  0  0  0  0  0  0  0  0
   -2.0225    0.4497   -7.4433 H   0  0  0  0  0  0  0  0  0  0  0  0
   -0.5733   -0.0628   -5.5324 H   0  0  0  0  0  0  0  0  0  0  0  0
    0.4236   -2.0311   -5.0547 H   0  0  0  0  0  0  0  0  0  0  0  0
   -0.5996   -3.0913   -6.0526 H   0  0  0  0  0  0  0  0  0  0  0  0
    0.5711   -1.8887   -6.7935 H   0  0  0  0  0  0  0  0  0  0  0  0
   -2.8359    0.1332   -5.5561 H   0  0  0  0  0  0  0  0  0  0  0  0
   -3.5508   -2.7350   -5.2777 H   0  0  0  0  0  0  0  0  0  0  0  0
   -4.7925   -0.0614   -6.1077 H   0  0  0  0  0  0  0  0  0  0  0  0
   -4.8534   -0.6588   -4.4587 H   0  0  0  0  0  0  0  0  0  0  0  0
   -6.9629    1.2272   -6.5459 H   0  0  0  0  0  0  0  0  0  0  0  0
   -6.5410    0.7201   -4.8128 H   0  0  0  0  0  0  0  0  0  0  0  0
   -8.9752    1.8984   -5.2811 H   0  0  0  0  0  0  0  0  0  0  0  0
   -8.7610    0.4858   -4.1584 H   0  0  0  0  0  0  0  0  0  0  0  0
  -10.4107   -0.2378   -5.5604 H   0  0  0  0  0  0  0  0  0  0  0  0
   -9.6753    0.5192   -7.0948 H   0  0  0  0  0  0  0  0  0  0  0  0
   -8.8920   -2.0342   -5.6384 H   0  0  0  0  0  0  0  0  0  0  0  0
   -7.9862   -2.7295   -7.7332 H   0  0  0  0  0  0  0  0  0  0  0  0
   -9.6879   -3.1756   -8.9660 H   0  0  0  0  0  0  0  0  0  0  0  0
  -11.2434   -4.1614   -7.5916 H   0  0  0  0  0  0  0  0  0  0  0  0
  -11.1865   -2.9124   -6.3227 H   0  0  0  0  0  0  0  0  0  0  0  0
   -9.7333   -3.9821   -6.7003 H   0  0  0  0  0  0  0  0  0  0  0  0
  -11.9832   -0.4919   -7.2476 H   0  0  0  0  0  0  0  0  0  0  0  0
  -12.6876   -0.2541  -10.1818 H   0  0  0  0  0  0  0  0  0  0  0  0
  -11.1835    1.4129   -9.8311 H   0  0  0  0  0  0  0  0  0  0  0  0
  -12.8076    2.0513  -10.0727 H   0  0  0  0  0  0  0  0  0  0  0  0
  -12.0941    2.0932   -8.3533 H   0  0  0  0  0  0  0  0  0  0  0  0
  -14.3770    0.8631   -7.8821 H   0  0  0  0  0  0  0  0  0  0  0  0
  -14.7279   -0.8911  -11.1178 H   0  0  0  0  0  0  0  0  0  0  0  0
  -15.8496    0.1825  -13.0794 H   0  0  0  0  0  0  0  0  0  0  0  0
  -16.5815    2.5025  -12.9797 H   0  0  0  0  0  0  0  0  0  0  0  0
  -16.2409    3.8347  -10.9461 H   0  0  0  0  0  0  0  0  0  0  0  0
  -15.1254    2.8075   -8.9536 H   0  0  0  0  0  0  0  0  0  0  0  0
  -15.3929   -1.0809   -7.8690 H   0  0  0  0  0  0  0  0  0  0  0  0
   -6.7505   -0.9841  -10.2164 H   0  0  0  0  0  0  0  0  0  0  0  0
   -7.3689   -2.6464   -9.7551 H   0  0  0  0  0  0  0  0  0  0  0  0
   -6.2579   -1.7290   -8.6968 H   0  0  0  0  0  0  0  0  0  0  0  0
   -3.6207   -3.4124   -8.6516 H   0  0  0  0  0  0  0  0  0  0  0  0
   -2.4343   -3.5694   -7.3785 H   0  0  0  0  0  0  0  0  0  0  0  0
   -4.1362   -3.9774   -6.9498 H   0  0  0  0  0  0  0  0  0  0  0  0
   -1.8834    0.5166   -2.3164 H   0  0  0  0  0  0  0  0  0  0  0  0
   -3.6668    0.5201   -2.7836 H   0  0  0  0  0  0  0  0  0  0  0  0
   -2.4441    1.2854   -3.7965 H   0  0  0  0  0  0  0  0  0  0  0  0
   -1.4828   -1.0622   -1.0939 H   0  0  0  0  0  0  0  0  0  0  0  0
   -3.0003   -2.4683    0.2145 H   0  0  0  0  0  0  0  0  0  0  0  0
   -5.2911   -2.4700   -1.0511 H   0  0  0  0  0  0  0  0  0  0  0  0
   -4.4802   -1.6353   -2.3499 H   0  0  0  0  0  0  0  0  0  0  0  0
   -4.5768   -0.9181   -0.6292 H   0  0  0  0  0  0  0  0  0  0  0  0
   -2.5724   -4.5604   -0.4922 H   0  0  0  0  0  0  0  0  0  0  0  0
   -3.0016   -4.2952   -2.2349 H   0  0  0  0  0  0  0  0  0  0  0  0
   -4.2793   -4.3149   -0.9145 H   0  0  0  0  0  0  0  0  0  0  0  0
   -1.0368   -3.9751   -1.6727 H   0  0  0  0  0  0  0  0  0  0  0  0
    0.8759   -4.6831    0.1802 H   0  0  0  0  0  0  0  0  0  0  0  0
    2.6279   -3.3414   -1.9095 H   0  0  0  0  0  0  0  0  0  0  0  0
    0.6239   -5.6126   -1.8569 H   0  0  0  0  0  0  0  0  0  0  0  0
    0.7754   -4.2653   -3.1428 H   0  0  0  0  0  0  0  0  0  0  0  0
    1.9748   -5.5456   -3.0142 H   0  0  0  0  0  0  0  0  0  0  0  0
    2.6397   -6.1101   -0.5212 H   0  0  0  0  0  0  0  0  0  0  0  0
    3.8703   -5.5190   -1.6800 H   0  0  0  0  0  0  0  0  0  0  0  0
    3.7416   -4.8017   -0.0190 H   0  0  0  0  0  0  0  0  0  0  0  0
    3.5350   -4.0956    2.2651 H   0  0  0  0  0  0  0  0  0  0  0  0
    1.7849   -3.8165    2.8142 H   0  0  0  0  0  0  0  0  0  0  0  0
    2.2164   -5.1973    1.7742 H   0  0  0  0  0  0  0  0  0  0  0  0
    4.0403    0.1598    1.8258 H   0  0  0  0  0  0  0  0  0  0  0  0
    5.1981   -0.6102    0.7104 H   0  0  0  0  0  0  0  0  0  0  0  0
    4.5728    0.1571    4.3419 H   0  0  0  0  0  0  0  0  0  0  0  0
    6.4121    0.2452    5.9666 H   0  0  0  0  0  0  0  0  0  0  0  0
    9.0686   -1.2786    3.0084 H   0  0  0  0  0  0  0  0  0  0  0  0
    7.2830   -1.3550    1.4322 H   0  0  0  0  0  0  0  0  0  0  0  0
    9.9556   -0.7275    5.0813 H   0  0  0  0  0  0  0  0  0  0  0  0
   10.6513   -1.5589    7.2776 H   0  0  0  0  0  0  0  0  0  0  0  0
   11.5910    0.1060    5.9535 H   0  0  0  0  0  0  0  0  0  0  0  0
   12.3349    0.2322    7.5510 H   0  0  0  0  0  0  0  0  0  0  0  0
   10.1862    2.1647    6.5502 H   0  0  0  0  0  0  0  0  0  0  0  0
   11.1736    2.2523    8.1282 H   0  0  0  0  0  0  0  0  0  0  0  0
   13.2120    2.3952    6.8591 H   0  0  0  0  0  0  0  0  0  0  0  0
   12.3621    2.2642    5.3165 H   0  0  0  0  0  0  0  0  0  0  0  0
   12.7312    4.6842    6.9173 H   0  0  0  0  0  0  0  0  0  0  0  0
   11.5912    6.7289    5.8298 H   0  0  0  0  0  0  0  0  0  0  0  0
    9.8154    6.5354    6.1766 H   0  0  0  0  0  0  0  0  0  0  0  0
   10.7958   -1.3027    9.5126 H   0  0  0  0  0  0  0  0  0  0  0  0
    8.8405   -0.5487   11.5472 H   0  0  0  0  0  0  0  0  0  0  0  0
   11.4650    1.0447   11.9760 H   0  0  0  0  0  0  0  0  0  0  0  0
   11.2979    0.0444   14.1689 H   0  0  0  0  0  0  0  0  0  0  0  0
    9.9671    1.1994   13.8736 H   0  0  0  0  0  0  0  0  0  0  0  0
    9.7010   -0.6359   13.7933 H   0  0  0  0  0  0  0  0  0  0  0  0
   12.3322   -1.1365   11.2391 H   0  0  0  0  0  0  0  0  0  0  0  0
   10.8016   -1.9656   11.7472 H   0  0  0  0  0  0  0  0  0  0  0  0
   11.9704   -1.3717   12.9493 H   0  0  0  0  0  0  0  0  0  0  0  0
    9.4465    2.3316   12.0776 H   0  0  0  0  0  0  0  0  0  0  0  0
    7.3835    3.7352   12.2427 H   0  0  0  0  0  0  0  0  0  0  0  0
    7.0367    2.8943   13.7607 H   0  0  0  0  0  0  0  0  0  0  0  0
    4.8559    2.1184   12.7937 H   0  0  0  0  0  0  0  0  0  0  0  0
    5.1048    3.9018   12.8690 H   0  0  0  0  0  0  0  0  0  0  0  0
    5.5713    2.0228   10.4760 H   0  0  0  0  0  0  0  0  0  0  0  0
    5.8828    3.8104   10.4536 H   0  0  0  0  0  0  0  0  0  0  0  0
    3.1518    2.3827   10.8083 H   0  0  0  0  0  0  0  0  0  0  0  0
    3.8234    3.2433    9.3131 H   0  0  0  0  0  0  0  0  0  0  0  0
    3.2705    4.4712   12.0164 H   0  0  0  0  0  0  0  0  0  0  0  0
    3.8438    5.2970   10.4702 H   0  0  0  0  0  0  0  0  0  0  0  0
   -1.4785    4.3240   10.0941 H   0  0  0  0  0  0  0  0  0  0  0  0
   -0.4337    5.4796    8.0355 H   0  0  0  0  0  0  0  0  0  0  0  0
  1  2  1  0
  2  3  1  0
  3  4  1  0
  3  5  1  0
  5  6  1  0
  6  7  1  0
  7  8  1  0
  8  9  2  0
  8 10  1  0
 10 11  1  0
 11 12  1  0
 12 13  1  0
 13 14  1  0
 14 15  1  0
 15 16  1  0
 16 17  1  0
 16 18  1  0
 18 19  2  0
 18 20  1  0
 20 21  1  0
 21 22  1  0
 21 23  1  0
 23 24  1  0
 24 25  2  0
 25 26  1  0
 26 27  2  0
 27 28  1  0
 28 29  2  0
 23 30  1  0
 15 31  1  0
 31 32  1  0
  6 33  1  0
 33 34  1  0
  5 35  1  0
 35 36  1  0
 35 37  1  0
 37 38  2  0
 37 39  1  0
 39 40  1  0
 40 41  1  0
 40 42  1  0
 39 43  1  0
 43 44  1  0
 44 45  2  0
 44 46  1  0
 46 47  1  0
 47 48  1  0
 47 49  1  0
 46 50  1  0
 50 51  1  0
 50 52  1  0
 52 53  2  0
 52 54  1  0
 54 55  1  0
 55 56  1  0
 56 57  1  0
 57 58  2  0
 58 59  1  0
 59 60  2  0
 60 61  1  0
 59 62  1  0
 62 63  1  0
 63 64  2  0
 63 65  1  0
 65 66  1  0
 66 67  1  0
 67 68  1  0
 68 69  1  0
 69 70  1  0
 70 71  2  0
 70 72  1  0
 65 73  1  0
 73 74  1  0
 74 75  2  0
 74 76  1  0
 76 77  1  0
 77 78  1  0
 77 79  1  0
 76 80  1  0
 80 81  1  0
 81 82  2  0
 81 83  1  0
 83 84  1  0
 84 85  1  0
 85 86  1  0
 86 87  1  0
 87 88  1  0
 88 89  1  0
 89 90  2  0
 89 91  1  0
 91 92  2  0
 92 93  1  0
 93 94  2  0
 14 10  1  0
 29 24  1  0
 61 56  2  0
 93 88  1  0
  1 95  1  0
  1 96  1  0
  1 97  1  0
  2 98  1  0
  2 99  1  0
  3100  1  1
  4101  1  0
  4102  1  0
  4103  1  0
  5104  1  6
  6105  1  1
  7106  1  0
  7107  1  0
 11108  1  0
 11109  1  0
 12110  1  0
 12111  1  0
 13112  1  0
 13113  1  0
 14114  1  1
 15115  1  1
 16116  1  6
 17117  1  0
 17118  1  0
 17119  1  0
 20120  1  0
 21121  1  6
 22122  1  0
 22123  1  0
 22124  1  0
 23125  1  1
 25126  1  0
 26127  1  0
 27128  1  0
 28129  1  0
 29130  1  0
 30131  1  0
 32132  1  0
 32133  1  0
 32134  1  0
 34135  1  0
 34136  1  0
 34137  1  0
 36138  1  0
 36139  1  0
 36140  1  0
 39141  1  1
 40142  1  0
 41143  1  0
 41144  1  0
 41145  1  0
 42146  1  0
 42147  1  0
 42148  1  0
 43149  1  0
 46150  1  1
 47151  1  0
 48152  1  0
 48153  1  0
 48154  1  0
 49155  1  0
 49156  1  0
 49157  1  0
 51158  1  0
 51159  1  0
 51160  1  0
 55161  1  0
 55162  1  0
 57163  1  0
 58164  1  0
 60165  1  0
 61166  1  0
 62167  1  0
 65168  1  6
 66169  1  0
 66170  1  0
 67171  1  0
 67172  1  0
 68173  1  0
 68174  1  0
 69175  1  0
 72176  1  0
 72177  1  0
 73178  1  0
 76179  1  6
 77180  1  0
 78181  1  0
 78182  1  0
 78183  1  0
 79184  1  0
 79185  1  0
 79186  1  0
 80187  1  0
 83188  1  0
 83189  1  0
 84190  1  0
 84191  1  0
 85192  1  0
 85193  1  0
 86194  1  0
 86195  1  0
 87196  1  0
 87197  1  0
 91198  1  0
 92199  1  0
M  END
$$$$
